ELEMENTS
O  H  C  N  AR
END
SPECIES
H                             
O                             
OH                            
HO2                           
H2O2                          
CH                            
HCO                           
S-CH2                         
T-CH2                         
CH2O                          
CH3                           
CH3O                          
CH2OH                         
CH3O2                         
CH4                           
CH3OH                         
CH3O2H                        
C2H                           
C2O                           
HCCO                          
C2H2                          
CH2CO                         
C2H3                          
CH2CHO                        
CH3CO                         
C2H4                          
CH3CHO                        
C2H5                          
C2H6                          
CH2CH2OH                      
CH3CHOH                       
C2H5OH                        
C2H5O                         
C3H2                          
C3H3                          
C3H4                          
C3H4P                         
C3H5                          
C3H6                          
N-C3H7                        
I-C3H7                        
C3H8                          
C4H                           
C4H2                          
H2C4O                         
N-C4H3                        
I-C4H3                        
C4H4                          
N-C4H5                        
I-C4H5                        
C4H6                          
C4H612                        
C4H7                          
P-C4H8                        
S-C4H8                        
C-2-C4H8                      
S-C4H9                        
P-C4H9                        
C4H10                         
C5H2                          
C5H3                          
C5H5                          
C5H6                          
C5H4O                         
C5H5O                         
C5H4OH                        
C6H                           
C6H2                          
C6H3                          
P-C6H4                        
C-C6H4                        
N-C6H5                        
I-C6H5                        
PC6H6                         
N-C6H7                        
I-C6H7                        
C-C6H7                        
C6H8                          
S-C6H9                        
P-C6H9                        
C6H10                         
C6H5O                         
C6H5OH                        
A1                            
A1-                           
A1C2H                         
A1C2H-                        
A1C2H*                        
N-A1C2H2                      
I-A1C2H2                      
C                             
CO                            
CO2                           
H2                            
H2O                           
O2                            
N2                            
C2H3CO                        
C2H3CHO                       
C2H4CHO                       
C2H5CO                        
C2H5CHO                       
CH3COCH3                      
CH3COCH2                      
CH2CH2CH2CHO                  
CH3CHCH2CHO                   
CH3CH2CHCHO                   
C2H5COCH2                     
N-C3H7CHO                     
N-C3H7CO                      
CH2CHCH2CHO                   
AC3H5CO                       
CH2CH2COCH3                   
C2H3COCH3                     
nC10H22                       
PP12-C10H21                   
PP13-C10H21                   
PP14-C10H21                   
PP15-C10H21                   
PP16-C10H21                   
c10h20-1                      
c9h20-2                       
c10h20-3                      
c10h20-4                      
c10h20-5                      
PP22-C9H17                    
PP23-C9H17                    
PP24-C9H17                    
PP25-C9H17                    
PP26-C9H17                    
PP27-C9H17                    
PP29-C6H13                    
PP30-C5H9                     
PP31-C5H11                    
PP32-C6H11                    
PP34-C7H13                    
PP36-C8H15                    
PP37-C5H9                     
PP38-C6H11                    
PP39-C7H13                    
PP40-C8H15                    
PP41-C6H11                    
PP42-C7H13                    
PP43-C8H15                    
PP44-C7H13                    
PP45-C8H15                    
PP46-C8H15                    
CH2CHCHC4H9                   
CH2CHCHCH3                    
PP51-C5H9                     
PP52-C6H11                    
PP53-C7H13                    
PP54-C3H5                     
CHCHCH2CH3                    
PP56-C5H9                     
PP57-C6H11                    
c6h12-1                       
c5h10-1                       
PP65-C9H17                    
C7H15-1                       
PP67-C8H15                    
PP68-C10H19                   
PP70-C10H19                   
PP71-C10H19                   
PP72-C10H19                   
PP73-C10H19                   
PP74-C10H19                   
PP75-C10H19                   
PP76-C10H19                   
c8h16-1                       
c7h14-1                       
c9h18-1                       
PP81-C8H16O                   
PP82-C7H14O                   
PP83-C6H12O                   
PP85-C5H10O                   
PP88-C8H15O                   
PP89-C7H13O                   
PP90-C6H11O                   
PP92-C5H9O                    
PP95-C9H18O                   
PP96-C9H19                    
PP97-C9H17O                   
PP99-C9H17O                   
PP100-C9H17O                  
PP101-C9H17O                  
PP102-C9H17O                  
PP103-C9H17O                  
PP104-C9H17O                  
PP105-C9H17O                  
PP106-C9H17O                  
PP111-C8H17                   
PP114-C8H14O                  
PP115-C7H13O                  
PP117-C5H8O                   
PP119-C6H10O                  
PP121-C7H12O                  
PP122-C5H9O                   
PP123-C6H11O                  
PP124-C8H13O                  
PP126-C5H7O                   
PP127-C6H9O                   
PP128-C7H11O                  
PP130-C10H21O2                
PP131-C10H21O2                
PP132-C10H21O2                
PP133-C10H21O2                
PP134-C10H21O2                
PP135-C10H21O2                
PP136-C10H21O2                
PP137-C10H21O2                
PP138-C10H21O2                
PP139-C10H21O2                
PP140-C10H21O2                
PP141-C10H21O2                
PP142-C10H21O2                
PP143-C10H21O2                
PP144-C10H21O2                
PP145-C10H21O2                
PP146-C10H21O2                
PP147-C10H21O2                
PP148-C10H21O2                
PP149-C10H21O2                
PP150-C10H21O2                
PP151-C10H21O2                
PP152-C10H21O2                
PP153-C10H21O2                
PP154-C10H21O2                
PP155-C10H21O2                
PP156-C10H21O2                
PP157-C10H21O2                
PP158-C10H21O2                
PP159-C10H21O2                
PP160-C10H21O2                
PP161-C10H21O2                
PP162-C10H21O2                
PP163-C10H21O2                
PP164-C10H21O2                
PP165-C10H21O4                
PP166-C10H21O4                
PP167-C10H21O4                
PP168-C10H21O4                
PP169-C10H21O4                
PP170-C10H21O4                
PP171-C10H21O4                
PP172-C10H21O4                
PP173-C10H21O4                
PP174-C10H21O4                
PP175-C10H21O4                
PP176-C10H21O4                
PP177-C10H21O4                
PP178-C10H21O4                
PP179-C10H21O4                
PP180-C10H21O4                
PP181-C10H21O4                
PP182-C10H21O4                
PP183-C10H21O4                
PP184-C10H21O4                
PP185-C10H21O4                
PP186-C10H21O4                
PP187-C10H21O4                
PP188-C10H21O4                
PP189-C10H21O4                
PP190-C10H21O4                
PP191-C10H21O4                
PP192-C10H21O4                
PP193-C10H21O4                
PP194-C10H21O4                
PP195-C10H20O3                
PP196-C10H20O3                
PP197-C10H20O3                
PP198-C10H20O3                
PP199-C10H20O3                
PP200-C10H20O3                
PP201-C10H20O3                
PP202-C10H20O3                
PP203-C10H20O3                
PP204-C10H20O3                
PP205-C10H20O3                
PP206-C10H20O3                
PP207-C10H20O3                
PP208-C10H20O3                
PP209-C10H20O3                
PP210-C10H20O3                
PP211-C10H20O3                
PP212-C10H20O3                
PP213-C10H20O3                
PP214-C10H20O3                
PP215-C10H20O3                
PP216-C10H20O3                
PP217-C10H20O3                
PP218-C10H20O3                
PP219-C10H20O3                
PP220-C10H20O3                
PP221-C10H20O3                
PP222-C10H20O3                
PP223-C10H20O3                
PP224-C10H20O3                
PP225-C9H17O                  
PP227-C5H9O                   
PP228-C6H11O                  
PP229-C8H15O                  
PP230-C7H13O                  
PP231-C9H17O                  
PP232-C5H9O                   
PP233-C6H11O                  
PP234-C7H13O                  
PP235-C8H15O                  
PP236-C9H17O                  
PP239-C8H15O                  
PP240-C5H9O                   
PP241-C7H13O                  
PP242-C6H11O                  
PP244-C10H22O2                
PP245-C10H22O2                
PP246-C10H22O2                
PP247-C10H22O2                
PP248-C10H22O2                
PP249-C10H21O                 
PP250-C10H21O                 
PP251-C10H21O                 
PP252-C10H21O                 
PP253-C10H21O                 
PP255-C9H19                   
PP256-C8H17                   
C7H15-3                       
PP259-C6H13                   
PP260-C5H11                   
PP261-C9H19                   
PP262-C8H17                   
C7H15-4                       
PP264-C5H11                   
PP265-C9H19                   
PP266-C6H13                   
PP267-C10H20O                 
PP268-C10H20O                 
PP269-C10H20O                 
PP270-C10H20O                 
PP271-C10H20O                 
PP272-C10H20O                 
PP273-C10H20O                 
PP274-C10H20O                 
PP275-C10H20O                 
PP276-C10H20O                 
PP277-C10H20O                 
PP278-C10H20O                 
PP279-C10H20O                 
PP280-C10H20O                 
PP281-C10H20O                 
PP282-C10H20O                 
PP284-C9H16O                  
PP285-C5H8O                   
PP286-C8H14O                  
PP287-C6H10O                  
PP288-C7H12O                  
nC7H16                        
C7H15-2                       
c7h14-2                       
c7h14-3                       
CHCHCHC4H9                    
CH3CHCHCHC3H7r                
c2h5chchchc2h5                
CH3CHCHCHC3H7                 
PP299-C6H11O                  
PP300-C6H11O                  
PP301-C6H11O                  
PP302-C6H11O                  
PP304-C7H15O2                 
PP305-C7H15O2                 
PP306-C7H15O2                 
PP307-C7H15O2                 
PP308-C7H15O2                 
PP309-C7H15O2                 
PP310-C7H15O2                 
PP311-C7H15O2                 
PP312-C7H15O2                 
PP313-C7H15O2                 
PP314-C7H15O2                 
PP315-C7H15O2                 
PP316-C7H15O2                 
PP317-C7H15O2                 
PP318-C7H15O2                 
PP319-C7H15O2                 
PP320-C7H15O2                 
PP321-C7H15O2                 
PP322-C7H15O2                 
PP323-C7H15O2                 
PP324-C7H15O2                 
PP325-C7H15O2                 
PP326-C7H15O4                 
PP327-C7H15O4                 
PP328-C7H15O4                 
PP329-C7H15O4                 
PP330-C7H15O4                 
PP331-C7H15O4                 
PP332-C7H15O4                 
PP333-C7H15O4                 
PP334-C7H15O4                 
PP335-C7H15O4                 
PP336-C7H15O4                 
PP337-C7H15O4                 
PP338-C7H15O4                 
PP339-C7H15O4                 
PP340-C7H15O4                 
PP341-C7H15O4                 
PP342-C7H15O4                 
PP343-C7H15O4                 
PP344-C7H14O3                 
PP345-C7H14O3                 
PP346-C7H14O3                 
PP347-C7H14O3                 
PP348-C7H14O3                 
PP349-C7H14O3                 
PP350-C7H14O3                 
PP351-C7H14O3                 
PP352-C7H14O3                 
PP353-C7H14O3                 
PP354-C7H14O3                 
PP355-C7H14O3                 
PP356-C7H14O3                 
PP357-C7H14O3                 
PP358-C7H14O3                 
PP359-C7H14O3                 
PP360-C7H14O3                 
PP361-C7H14O3                 
PP362-C7H16O2                 
PP363-C7H16O2                 
PP364-C7H16O2                 
PP365-C7H16O2                 
PP366-C7H15O                  
PP367-C7H15O                  
PP368-C7H15O                  
PP369-C7H15O                  
PP371-C7H14O                  
PP372-C7H14O                  
PP373-C7H14O                  
PP374-C7H14O                  
PP375-C7H14O                  
PP376-C7H14O                  
PP377-C7H14O                  
PP378-C7H14O                  
PP379-C7H14O                  
PP380-C7H14O                  
nC6H14                        
c6h12-2                       
c6h12-3                       
PP386-C6H11                   
PP387-C6H11                   
PP388-C6H11                   
PP389-C5H9O                   
PP390-C5H9O                   
PP391-C5H9O                   
PP393-C6H13O2                 
PP394-C6H13O2                 
PP395-C6H13O2                 
PP396-C6H13O2                 
PP397-C6H13O2                 
PP398-C6H13O2                 
PP399-C6H13O2                 
PP400-C6H13O2                 
PP401-C6H13O2                 
PP402-C6H13O2                 
PP403-C6H13O2                 
PP404-C6H13O2                 
PP405-C6H13O2                 
PP406-C6H13O2                 
PP407-C6H13O2                 
PP408-C6H13O2                 
PP409-C6H13O2                 
PP410-C6H13O4                 
PP411-C6H13O4                 
PP412-C6H13O4                 
PP413-C6H13O4                 
PP414-C6H13O4                 
PP415-C6H13O4                 
PP416-C6H13O4                 
PP417-C6H13O4                 
PP418-C6H13O4                 
PP419-C6H13O4                 
PP420-C6H13O4                 
PP421-C6H13O4                 
PP422-C6H13O4                 
PP423-C6H13O4                 
PP424-C6H12O3                 
PP425-C6H12O3                 
PP426-C6H12O3                 
PP427-C6H12O3                 
PP428-C6H12O3                 
PP429-C6H12O3                 
PP430-C6H12O3                 
PP431-C6H12O3                 
PP432-C6H12O3                 
PP433-C6H12O3                 
PP434-C6H12O3                 
PP435-C6H12O3                 
PP436-C6H12O3                 
PP437-C6H12O3                 
PP438-C6H14O2                 
PP439-C6H14O2                 
PP440-C6H14O2                 
PP441-C6H13O                  
PP442-C6H13O                  
PP443-C6H13O                  
PP445-C6H12O                  
PP446-C6H12O                  
PP447-C6H12O                  
PP448-C6H12O                  
PP449-C6H12O                  
PP450-C6H12O                  
PP451-C6H12O                  
PP452-C6H12O                  
nC9H20                        
PP455-C9H19                   
c9h18-2                       
c9h16-3                       
c9h18-4                       
PP460-C9H17                   
PP461-C9H17                   
PP462-C9H17                   
PP463-C9H17                   
PP464-C9H17                   
PP465-C9H17                   
PP466-C8H15O                  
PP467-C8H15O                  
PP468-C8H15O                  
PP469-C8H15O                  
PP470-C8H15O                  
PP471-C8H15O                  
PP472-C8H15O                  
PP474-C9H19O2                 
PP475-C9H19O2                 
PP476-C9H19O2                 
PP477-C9H19O2                 
PP478-C9H19O2                 
PP479-C9H19O2                 
PP480-C9H19O2                 
PP481-C9H19O2                 
PP482-C9H19O2                 
PP483-C9H19O2                 
PP484-C9H19O2                 
PP485-C9H19O2                 
PP486-C9H19O2                 
PP487-C9H19O2                 
PP488-C9H19O2                 
PP489-C9H19O2                 
PP490-C9H19O2                 
PP491-C9H19O2                 
PP492-C9H19O2                 
PP493-C9H19O2                 
PP494-C9H19O2                 
PP495-C9H19O2                 
PP496-C9H19O2                 
PP497-C9H19O2                 
PP498-C9H19O2                 
PP499-C9H19O2                 
PP500-C9H19O2                 
PP501-C9H19O2                 
PP502-C9H19O2                 
PP503-C9H19O2                 
PP504-C9H19O2                 
PP505-C9H19O4                 
PP506-C9H19O4                 
PP507-C9H19O4                 
PP508-C9H19O4                 
PP509-C9H19O4                 
PP510-C9H19O4                 
PP511-C9H19O4                 
PP512-C9H19O4                 
PP513-C9H19O4                 
PP514-C9H19O4                 
PP515-C9H19O4                 
PP516-C9H19O4                 
PP517-C9H19O4                 
PP518-C9H19O4                 
PP519-C9H19O4                 
PP520-C9H19O4                 
PP521-C9H19O4                 
PP522-C9H19O4                 
PP523-C9H19O4                 
PP524-C9H19O4                 
PP525-C9H19O4                 
PP526-C9H19O4                 
PP527-C9H19O4                 
PP528-C9H19O4                 
PP529-C9H19O4                 
PP530-C9H19O4                 
PP531-C9H18O3                 
PP532-C9H18O3                 
PP533-C9H18O3                 
PP534-C9H18O3                 
PP535-C9H18O3                 
PP536-C9H18O3                 
PP537-C9H18O3                 
PP538-C9H18O3                 
PP539-C9H18O3                 
PP540-C9H18O3                 
PP541-C9H18O3                 
PP542-C9H18O3                 
PP543-C9H18O3                 
PP544-C9H18O3                 
PP545-C9H18O3                 
PP546-C9H18O3                 
PP547-C9H18O3                 
PP548-C9H18O3                 
PP549-C9H18O3                 
PP550-C9H18O3                 
PP551-C9H18O3                 
PP552-C9H18O3                 
PP553-C9H18O3                 
PP554-C9H18O3                 
PP555-C9H18O3                 
PP556-C9H18O3                 
PP557-C9H20O2                 
PP558-C9H20O2                 
PP559-C9H20O2                 
PP560-C9H20O2                 
PP561-C9H20O2                 
PP562-C9H19O                  
PP563-C9H19O                  
PP564-C9H19O                  
PP565-C9H19O                  
PP566-C9H19O                  
PP568-C9H18O                  
PP569-C9H18O                  
PP570-C9H18O                  
PP571-C9H18O                  
PP572-C9H18O                  
PP573-C9H18O                  
PP574-C9H18O                  
PP575-C9H18O                  
PP576-C9H18O                  
PP577-C9H18O                  
PP578-C9H18O                  
PP579-C9H18O                  
PP580-C9H18O                  
PP581-C9H18O                  
nC8H18                        
PP584-C8H17                   
c8h16-2                       
c8h16-3                       
c8h16-4                       
PP589-C8H15                   
PP590-C8H15                   
PP591-C8H15                   
PP592-C8H15                   
PP593-C8H15                   
PP594-C7H13O                  
PP595-C7H13O                  
PP596-C7H13O                  
PP597-C7H13O                  
PP598-C7H13O                  
PP600-C8H17O2                 
PP601-C8H17O2                 
PP602-C8H17O2                 
PP603-C8H17O2                 
PP604-C8H17O2                 
PP605-C8H17O2                 
PP606-C8H17O2                 
PP607-C8H17O2                 
PP608-C8H17O2                 
PP609-C8H17O2                 
PP610-C8H17O2                 
PP611-C8H17O2                 
PP612-C8H17O2                 
PP613-C8H17O2                 
PP614-C8H17O2                 
PP615-C8H17O2                 
PP616-C8H17O2                 
PP617-C8H17O2                 
PP618-C8H17O2                 
PP619-C8H17O2                 
PP620-C8H17O2                 
PP621-C8H17O2                 
PP622-C8H17O2                 
PP623-C8H17O2                 
PP624-C8H17O2                 
PP625-C8H17O2                 
PP626-C8H17O4                 
PP627-C8H17O4                 
PP628-C8H17O4                 
PP629-C8H17O4                 
PP630-C8H17O4                 
PP631-C8H17O4                 
PP632-C8H17O4                 
PP633-C8H17O4                 
PP634-C8H17O4                 
PP635-C8H17O4                 
PP636-C8H17O4                 
PP637-C8H17O4                 
PP638-C8H17O4                 
PP639-C8H17O4                 
PP640-C8H17O4                 
PP641-C8H17O4                 
PP642-C8H17O4                 
PP643-C8H17O4                 
PP644-C8H17O4                 
PP645-C8H17O4                 
PP646-C8H17O4                 
PP647-C8H17O4                 
PP648-C8H16O3                 
PP649-C8H16O3                 
PP650-C8H16O3                 
PP651-C8H16O3                 
PP652-C8H16O3                 
PP653-C8H16O3                 
PP654-C8H16O3                 
PP655-C8H16O3                 
PP656-C8H16O3                 
PP657-C8H16O3                 
PP658-C8H16O3                 
PP659-C8H16O3                 
PP660-C8H16O3                 
PP661-C8H16O3                 
PP662-C8H16O3                 
PP663-C8H16O3                 
PP664-C8H16O3                 
PP665-C8H16O3                 
PP666-C8H16O3                 
PP667-C8H16O3                 
PP668-C8H16O3                 
PP669-C8H16O3                 
PP670-C8H18O2                 
PP671-C8H18O2                 
PP672-C8H18O2                 
PP673-C8H18O2                 
PP674-C8H17O                  
PP675-C8H17O                  
PP676-C8H17O                  
PP677-C8H17O                  
PP679-C8H16O                  
PP680-C8H16O                  
PP681-C8H16O                  
PP682-C8H16O                  
PP683-C8H16O                  
PP684-C8H16O                  
PP685-C8H16O                  
PP686-C8H16O                  
PP687-C8H16O                  
PP688-C8H16O                  
PP689-C8H16O                  
PP690-C8H16O                  
nC5H12                        
c5h10-2                       
PP695-C5H9                    
PP696-C5H9                    
PP700-C5H11O2                 
PP701-C5H11O2                 
PP702-C5H11O2                 
PP703-C5H11O2                 
PP704-C5H11O2                 
PP705-C5H11O2                 
PP706-C5H11O2                 
PP707-C5H11O2                 
PP708-C5H11O2                 
PP709-C5H11O2                 
PP710-C5H11O2                 
PP711-C5H11O2                 
PP712-C5H11O2                 
PP713-C5H11O4                 
PP714-C5H11O4                 
PP715-C5H11O4                 
PP716-C5H11O4                 
PP717-C5H11O4                 
PP718-C5H11O4                 
PP719-C5H11O4                 
PP720-C5H11O4                 
PP721-C5H11O4                 
PP722-C5H11O4                 
PP723-C5H10O3                 
PP724-C5H10O3                 
PP725-C5H10O3                 
PP726-C5H10O3                 
PP727-C5H10O3                 
PP728-C5H10O3                 
PP729-C5H10O3                 
PP730-C5H10O3                 
PP731-C5H10O3                 
PP732-C5H10O3                 
PP733-C5H12O2                 
PP734-C5H12O2                 
PP735-C5H12O2                 
PP736-C5H11O                  
PP737-C5H11O                  
PP738-C5H11O                  
PP740-C5H10O                  
PP741-C5H10O                  
PP742-C5H10O                  
PP743-C5H10O                  
PP744-C5H10O                  
PP745-C5H10O                  
END_OF_SPECIES
THERMO ALL
   300.000  1000.000  5000.000
H                 120186 H  1               G    300.00   5000.00   1000.00    1
+2.50000000e+00+0.00000000e+00+0.00000000e+00+0.00000000e+00+0.00000000e+00    2
+2.54716200e+04-4.60117600e-01+2.50000000e+00+0.00000000e+00+0.00000000e+00    3
+0.00000000e+00+0.00000000e+00+2.54716200e+04-4.60117600e-01                   4
O                 120186 O  1               G    300.00   5000.00   1000.00    1
+2.54205900e+00-2.75506100e-05-3.10280300e-09+4.55106700e-12-4.36805100e-16    2
+2.92308000e+04+4.92030800e+00+2.94642800e+00-1.63816650e-03+2.42103100e-06    3
-1.60284310e-09+3.89069600e-13+2.91476400e+04+2.96399500e+00                   4
OH                121286 H  1 O  1          G    300.00   5000.00   1000.00    1
+2.88273000e+00+1.01397430e-03-2.27687700e-07+2.17468300e-11-5.12630500e-16    2
+3.88688800e+03+5.59571200e+00+3.63726600e+00+1.85091000e-04-1.67616460e-06    3
+2.38720200e-09-8.43144200e-13+3.60678100e+03+1.35886050e+00                   4
HO2               20387  H  1 O  2          G    300.00   5000.00   1000.00    1
+4.07219100e+00+2.13129600e-03-5.30814500e-07+6.11226900e-11-2.84116400e-15    2
-1.57972700e+02+3.47602900e+00+2.97996300e+00+4.99669700e-03-3.79099700e-06    3
+2.35419200e-09-8.08902400e-13+1.76227300e+02+9.22272400e+00                   4
H2O2              120186 H  2 O  2          G    300.00   5000.00   1000.00    1
+4.57316700e+00+4.33613600e-03-1.47468880e-06+2.34890300e-10-1.43165360e-14    2
-1.80069600e+04+5.01136900e-01+3.38875300e+00+6.56922600e-03-1.48501250e-07    3
-4.62580500e-09+2.47151400e-12-1.76631400e+04+6.78536300e+00                   4
CH                SSNL121286 C  1 H  1          G    300.00   5000.00   1000.00    1
+2.19622326e+00+2.34038103e-03-7.05820128e-07+9.00758218e-11-3.85504007e-15    2
+7.08672344e+04+9.17837334e+00+3.20020247e+00+2.07287562e-03-5.13443138e-06    3
+5.73389025e-09-1.95553318e-12+7.04525938e+04+3.33158779e+00                   4
HCO               HCO WES 121286 C  1 H  1 O  1     G    300.00   5000.00   1000.00    1
+3.55727100e+00+3.34557200e-03-1.33500600e-06+2.47057200e-10-1.71385000e-14    2
+3.91632400e+03+5.55229900e+00+2.89832900e+00+6.19914600e-03-9.62308400e-06    3
+1.08982490e-08-4.57488500e-12+4.15992200e+03+8.98361400e+00                   4
S-CH2             SSNL 31287 C  1 H  2          G    300.00   5000.00   1000.00    1
+3.55288863e+00+2.06678826e-03-1.91411601e-07-1.10467337e-10+2.02134960e-14    2
+4.98497539e+04+1.68657005e+00+3.97126508e+00-1.69908875e-04+1.02536887e-06    3
+2.49255083e-09-1.98126628e-12+4.98936758e+04+5.75320721e-02                   4
T-CH2             SSNL120186 C  1 H  2          G    300.00   5000.00   1000.00    1
+3.63640785e+00+1.93305663e-03-1.68701632e-07-1.00989939e-10+1.80825576e-14    2
+4.53413398e+04+2.15656066e+00+3.76223707e+00+1.15981908e-03+2.48958543e-07    3
+8.80083562e-10-7.33243544e-13+4.53679063e+04+1.71257758e+00                   4
CH2O              SSNL121286 C  1 H  2 O  1     G    300.00   5000.00   1000.00    1
+2.99560618e+00+6.68132119e-03-2.62895469e-06+4.73715289e-10-3.21251747e-14    2
-1.53203691e+04+6.91257238e+00+1.65273118e+00+1.26314387e-02-1.88816848e-05    3
+2.05003143e-08-8.41323712e-12-1.48654043e+04+1.37848196e+01                   4
CH3               SSNL121286 C  1 H  3          G    300.00   5000.00   1000.00    1
+2.84405160e+00+6.13797410e-03-2.23034522e-06+3.78516080e-10-2.45215903e-14    2
+1.64378086e+04+5.45269728e+00+2.43044281e+00+1.11240987e-02-1.68022034e-05    3
+1.62182872e-08-5.86495262e-12+1.64237813e+04+6.78979397e+00                   4
CH3O              U10/77 C  1 H  3 O  1     G    300.00   5000.00   1000.00    1
+3.77079960e+00+7.87149740e-03-2.65638390e-06+3.94443140e-10-2.11261640e-14    2
+1.27832520e+02+2.92957500e+00+2.10620400e+00+7.21659510e-03+5.33847200e-06    3
-7.37763630e-09+2.07561050e-12+9.78601070e+02+1.31521770e+01                   4
CH2OH             WAR U 3/78 C  1 H  3 O  1     G    300.00   5000.00   1000.00    1
+4.72350410e+00+6.10204410e-03-1.91320940e-06+2.76074270e-10-1.45483670e-14    2
-3.93291650e+03-8.52438210e-02+3.33684060e+00+6.58812370e-03+2.99793280e-06    3
-5.87197140e-09+2.12295720e-12-3.31682670e+03+8.06681540e+00                   4
CH3O2             WAR L 1/84 C  1 H  3 O  2     G    300.00   5000.00   1000.00    1
+6.68129630e+00+8.00572710e-03-2.71885070e-06+4.06313650e-10-2.19277250e-14    2
+5.26218510e+02-9.94238470e+00+2.09864900e+00+1.57863570e-02+7.56832610e-08    3
-1.12745870e-08+5.66651330e-12+2.06958790e+03+1.50070680e+01                   4
CH4               RRHO SSNL121296 C  1 H  4          G    300.00   5000.00   1000.00    1
+1.68347883e+00+1.02372356e-02-3.87512864e-06+6.78558487e-10-4.50342312e-14    2
-1.00807871e+04+9.62339497e+00+7.78741479e-01+1.74766835e-02-2.78340904e-05    3
+3.04970804e-08-1.22393068e-11-9.82522852e+03+1.37221947e+01                   4
CH3OH             T 4/82 C  1 H  4 O  1     G    300.00   5000.00   1000.00    1
+4.02906130e+00+9.37659290e-03-3.05025420e-06+4.35879330e-10-2.22472320e-14    2
-2.61579100e+04+2.37819580e+00+2.66011520e+00+7.34150780e-03+7.17005060e-06    3
-8.79319370e-09+2.39057040e-12-2.53534840e+04+1.12326310e+01                   4
CH3O2H            WAR L 1/84 C  1 H  4 O  2     G    300.00   5000.00   1000.00    1
+6.68129630e+00+8.00572710e-03-2.71885070e-06+4.06313650e-10-2.19277250e-14    2