#
# Generated from file data/data/mechanisms/generated/version40.1-Out.ckm
# by ck2cti on Wed Aug  9 20:03:36 2006
#
units(length = "cm", time = "s", quantity = "mol", act_energy = "cal/mol")


ideal_gas(name = "data/data/mechanisms/generated/version40.1-Out",
      elements = " O  H  C  N  Ar ",
      species = """ H  O  OH  HO2  H2O2  CH  HCO  S-CH2  T-CH2  CH2O 
                   CH3  CH3O  CH2OH  CH3O2  CH4  CH3OH  CH3O2H  C2H  C2O  HCCO 
                   C2H2  CH2CO  C2H3  CH2CHO  CH3CO  C2H4  CH3CHO  C2H5  C2H6  CH2CH2OH 
                   CH3CHOH  C2H5OH  C2H5O  C3H2  C3H3  C3H4  C3H4P  C3H5  C3H6  N-C3H7 
                   I-C3H7  C3H8  C4H  C4H2  H2C4O  N-C4H3  I-C4H3  C4H4  N-C4H5  I-C4H5 
                   C4H6  C4H612  C4H7  P-C4H8  S-C4H8  C-2-C4H8  S-C4H9  P-C4H9  C4H10  C5H2 
                   C5H3  C5H5  C5H6  C5H4O  C5H5O  C5H4OH  C6H  C6H2  C6H3  P-C6H4 
                   C-C6H4  N-C6H5  I-C6H5  PC6H6  N-C6H7  I-C6H7  C-C6H7  C6H8  S-C6H9  P-C6H9 
                   C6H10  C6H5O  C6H5OH  A1  A1-  A1C2H  A1C2H-  A1C2H*  N-A1C2H2  I-A1C2H2 
                   C  CO  CO2  H2  H2O  O2  N2  C2H3CO  C2H3CHO  C2H4CHO 
                   C2H5CO  C2H5CHO  CH3COCH3  CH3COCH2  CH2CH2CH2CHO  CH3CHCH2CHO  CH3CH2CHCHO  C2H5COCH2  N-C3H7CHO  N-C3H7CO 
                   CH2CHCH2CHO  AC3H5CO  CH2CH2COCH3  C2H3COCH3  nC10H22  PP12-C10H21  PP13-C10H21  PP14-C10H21  PP15-C10H21  PP16-C10H21 
                   c10h20-1  c9h20-2  c10h20-3  c10h20-4  c10h20-5  PP22-C9H17  PP23-C9H17  PP24-C9H17  PP25-C9H17  PP26-C9H17 
                   PP27-C9H17  PP29-C6H13  PP30-C5H9  PP31-C5H11  PP32-C6H11  PP34-C7H13  PP36-C8H15  PP37-C5H9  PP38-C6H11  PP39-C7H13 
                   PP40-C8H15  PP41-C6H11  PP42-C7H13  PP43-C8H15  PP44-C7H13  PP45-C8H15  PP46-C8H15  CH2CHCHC4H9  CH2CHCHCH3  PP51-C5H9 
                   PP52-C6H11  PP53-C7H13  PP54-C3H5  CHCHCH2CH3  PP56-C5H9  PP57-C6H11  c6h12-1  c5h10-1  PP65-C9H17  C7H15-1 
                   PP67-C8H15  PP68-C10H19  PP70-C10H19  PP71-C10H19  PP72-C10H19  PP73-C10H19  PP74-C10H19  PP75-C10H19  PP76-C10H19  c8h16-1 
                   c7h14-1  c9h18-1  PP81-C8H16O  PP82-C7H14O  PP83-C6H12O  PP85-C5H10O  PP88-C8H15O  PP89-C7H13O  PP90-C6H11O  PP92-C5H9O 
                   PP95-C9H18O  PP96-C9H19  PP97-C9H17O  PP99-C9H17O  PP100-C9H17O  PP101-C9H17O  PP102-C9H17O  PP103-C9H17O  PP104-C9H17O  PP105-C9H17O 
                   PP106-C9H17O  PP111-C8H17  PP114-C8H14O  PP115-C7H13O  PP117-C5H8O  PP119-C6H10O  PP121-C7H12O  PP122-C5H9O  PP123-C6H11O  PP124-C8H13O 
                   PP126-C5H7O  PP127-C6H9O  PP128-C7H11O  PP130-C10H21O2  PP131-C10H21O2  PP132-C10H21O2  PP133-C10H21O2  PP134-C10H21O2  PP135-C10H21O2  PP136-C10H21O2 
                   PP137-C10H21O2  PP138-C10H21O2  PP139-C10H21O2  PP140-C10H21O2  PP141-C10H21O2  PP142-C10H21O2  PP143-C10H21O2  PP144-C10H21O2  PP145-C10H21O2  PP146-C10H21O2 
                   PP147-C10H21O2  PP148-C10H21O2  PP149-C10H21O2  PP150-C10H21O2  PP151-C10H21O2  PP152-C10H21O2  PP153-C10H21O2  PP154-C10H21O2  PP155-C10H21O2  PP156-C10H21O2 
                   PP157-C10H21O2  PP158-C10H21O2  PP159-C10H21O2  PP160-C10H21O2  PP161-C10H21O2  PP162-C10H21O2  PP163-C10H21O2  PP164-C10H21O2  PP165-C10H21O4  PP166-C10H21O4 
                   PP167-C10H21O4  PP168-C10H21O4  PP169-C10H21O4  PP170-C10H21O4  PP171-C10H21O4  PP172-C10H21O4  PP173-C10H21O4  PP174-C10H21O4  PP175-C10H21O4  PP176-C10H21O4 
                   PP177-C10H21O4  PP178-C10H21O4  PP179-C10H21O4  PP180-C10H21O4  PP181-C10H21O4  PP182-C10H21O4  PP183-C10H21O4  PP184-C10H21O4  PP185-C10H21O4  PP186-C10H21O4 
                   PP187-C10H21O4  PP188-C10H21O4  PP189-C10H21O4  PP190-C10H21O4  PP191-C10H21O4  PP192-C10H21O4  PP193-C10H21O4  PP194-C10H21O4  PP195-C10H20O3  PP196-C10H20O3 
                   PP197-C10H20O3  PP198-C10H20O3  PP199-C10H20O3  PP200-C10H20O3  PP201-C10H20O3  PP202-C10H20O3  PP203-C10H20O3  PP204-C10H20O3  PP205-C10H20O3  PP206-C10H20O3 
                   PP207-C10H20O3  PP208-C10H20O3  PP209-C10H20O3  PP210-C10H20O3  PP211-C10H20O3  PP212-C10H20O3  PP213-C10H20O3  PP214-C10H20O3  PP215-C10H20O3  PP216-C10H20O3 
                   PP217-C10H20O3  PP218-C10H20O3  PP219-C10H20O3  PP220-C10H20O3  PP221-C10H20O3  PP222-C10H20O3  PP223-C10H20O3  PP224-C10H20O3  PP225-C9H17O  PP227-C5H9O 
                   PP228-C6H11O  PP229-C8H15O  PP230-C7H13O  PP231-C9H17O  PP232-C5H9O  PP233-C6H11O  PP234-C7H13O  PP235-C8H15O  PP236-C9H17O  PP239-C8H15O 
                   PP240-C5H9O  PP241-C7H13O  PP242-C6H11O  PP244-C10H22O2  PP245-C10H22O2  PP246-C10H22O2  PP247-C10H22O2  PP248-C10H22O2  PP249-C10H21O  PP250-C10H21O 
                   PP251-C10H21O  PP252-C10H21O  PP253-C10H21O  PP255-C9H19  PP256-C8H17  C7H15-3  PP259-C6H13  PP260-C5H11  PP261-C9H19  PP262-C8H17 
                   C7H15-4  PP264-C5H11  PP265-C9H19  PP266-C6H13  PP267-C10H20O  PP268-C10H20O  PP269-C10H20O  PP270-C10H20O  PP271-C10H20O  PP272-C10H20O 
                   PP273-C10H20O  PP274-C10H20O  PP275-C10H20O  PP276-C10H20O  PP277-C10H20O  PP278-C10H20O  PP279-C10H20O  PP280-C10H20O  PP281-C10H20O  PP282-C10H20O 
                   PP284-C9H16O  PP285-C5H8O  PP286-C8H14O  PP287-C6H10O  PP288-C7H12O  nC7H16  C7H15-2  c7h14-2  c7h14-3  CHCHCHC4H9 
                   CH3CHCHCHC3H7r  c2h5chchchc2h5  CH3CHCHCHC3H7  PP299-C6H11O  PP300-C6H11O  PP301-C6H11O  PP302-C6H11O  PP304-C7H15O2  PP305-C7H15O2  PP306-C7H15O2 
                   PP307-C7H15O2  PP308-C7H15O2  PP309-C7H15O2  PP310-C7H15O2  PP311-C7H15O2  PP312-C7H15O2  PP313-C7H15O2  PP314-C7H15O2  PP315-C7H15O2  PP316-C7H15O2 
                   PP317-C7H15O2  PP318-C7H15O2  PP319-C7H15O2  PP320-C7H15O2  PP321-C7H15O2  PP322-C7H15O2  PP323-C7H15O2  PP324-C7H15O2  PP325-C7H15O2  PP326-C7H15O4 
                   PP327-C7H15O4  PP328-C7H15O4  PP329-C7H15O4  PP330-C7H15O4  PP331-C7H15O4  PP332-C7H15O4  PP333-C7H15O4  PP334-C7H15O4  PP335-C7H15O4  PP336-C7H15O4 
                   PP337-C7H15O4  PP338-C7H15O4  PP339-C7H15O4  PP340-C7H15O4  PP341-C7H15O4  PP342-C7H15O4  PP343-C7H15O4  PP344-C7H14O3  PP345-C7H14O3  PP346-C7H14O3 
                   PP347-C7H14O3  PP348-C7H14O3  PP349-C7H14O3  PP350-C7H14O3  PP351-C7H14O3  PP352-C7H14O3  PP353-C7H14O3  PP354-C7H14O3  PP355-C7H14O3  PP356-C7H14O3 
                   PP357-C7H14O3  PP358-C7H14O3  PP359-C7H14O3  PP360-C7H14O3  PP361-C7H14O3  PP362-C7H16O2  PP363-C7H16O2  PP364-C7H16O2  PP365-C7H16O2  PP366-C7H15O 
                   PP367-C7H15O  PP368-C7H15O  PP369-C7H15O  PP371-C7H14O  PP372-C7H14O  PP373-C7H14O  PP374-C7H14O  PP375-C7H14O  PP376-C7H14O  PP377-C7H14O 
                   PP378-C7H14O  PP379-C7H14O  PP380-C7H14O  nC6H14  c6h12-2  c6h12-3  PP386-C6H11  PP387-C6H11  PP388-C6H11  PP389-C5H9O 
                   PP390-C5H9O  PP391-C5H9O  PP393-C6H13O2  PP394-C6H13O2  PP395-C6H13O2  PP396-C6H13O2  PP397-C6H13O2  PP398-C6H13O2  PP399-C6H13O2  PP400-C6H13O2 
                   PP401-C6H13O2  PP402-C6H13O2  PP403-C6H13O2  PP404-C6H13O2  PP405-C6H13O2  PP406-C6H13O2  PP407-C6H13O2  PP408-C6H13O2  PP409-C6H13O2  PP410-C6H13O4 
                   PP411-C6H13O4  PP412-C6H13O4  PP413-C6H13O4  PP414-C6H13O4  PP415-C6H13O4  PP416-C6H13O4  PP417-C6H13O4  PP418-C6H13O4  PP419-C6H13O4  PP420-C6H13O4 
                   PP421-C6H13O4  PP422-C6H13O4  PP423-C6H13O4  PP424-C6H12O3  PP425-C6H12O3  PP426-C6H12O3  PP427-C6H12O3  PP428-C6H12O3  PP429-C6H12O3  PP430-C6H12O3 
                   PP431-C6H12O3  PP432-C6H12O3  PP433-C6H12O3  PP434-C6H12O3  PP435-C6H12O3  PP436-C6H12O3  PP437-C6H12O3  PP438-C6H14O2  PP439-C6H14O2  PP440-C6H14O2 
                   PP441-C6H13O  PP442-C6H13O  PP443-C6H13O  PP445-C6H12O  PP446-C6H12O  PP447-C6H12O  PP448-C6H12O  PP449-C6H12O  PP450-C6H12O  PP451-C6H12O 
                   PP452-C6H12O  nC9H20  PP455-C9H19  c9h18-2  c9h16-3  c9h18-4  PP460-C9H17  PP461-C9H17  PP462-C9H17  PP463-C9H17 
                   PP464-C9H17  PP465-C9H17  PP466-C8H15O  PP467-C8H15O  PP468-C8H15O  PP469-C8H15O  PP470-C8H15O  PP471-C8H15O  PP472-C8H15O  PP474-C9H19O2 
                   PP475-C9H19O2  PP476-C9H19O2  PP477-C9H19O2  PP478-C9H19O2  PP479-C9H19O2  PP480-C9H19O2  PP481-C9H19O2  PP482-C9H19O2  PP483-C9H19O2  PP484-C9H19O2 
                   PP485-C9H19O2  PP486-C9H19O2  PP487-C9H19O2  PP488-C9H19O2  PP489-C9H19O2  PP490-C9H19O2  PP491-C9H19O2  PP492-C9H19O2  PP493-C9H19O2  PP494-C9H19O2 
                   PP495-C9H19O2  PP496-C9H19O2  PP497-C9H19O2  PP498-C9H19O2  PP499-C9H19O2  PP500-C9H19O2  PP501-C9H19O2  PP502-C9H19O2  PP503-C9H19O2  PP504-C9H19O2 
                   PP505-C9H19O4  PP506-C9H19O4  PP507-C9H19O4  PP508-C9H19O4  PP509-C9H19O4  PP510-C9H19O4  PP511-C9H19O4  PP512-C9H19O4  PP513-C9H19O4  PP514-C9H19O4 
                   PP515-C9H19O4  PP516-C9H19O4  PP517-C9H19O4  PP518-C9H19O4  PP519-C9H19O4  PP520-C9H19O4  PP521-C9H19O4  PP522-C9H19O4  PP523-C9H19O4  PP524-C9H19O4 
                   PP525-C9H19O4  PP526-C9H19O4  PP527-C9H19O4  PP528-C9H19O4  PP529-C9H19O4  PP530-C9H19O4  PP531-C9H18O3  PP532-C9H18O3  PP533-C9H18O3  PP534-C9H18O3 
                   PP535-C9H18O3  PP536-C9H18O3  PP537-C9H18O3  PP538-C9H18O3  PP539-C9H18O3  PP540-C9H18O3  PP541-C9H18O3  PP542-C9H18O3  PP543-C9H18O3  PP544-C9H18O3 
                   PP545-C9H18O3  PP546-C9H18O3  PP547-C9H18O3  PP548-C9H18O3  PP549-C9H18O3  PP550-C9H18O3  PP551-C9H18O3  PP552-C9H18O3  PP553-C9H18O3  PP554-C9H18O3 
                   PP555-C9H18O3  PP556-C9H18O3  PP557-C9H20O2  PP558-C9H20O2  PP559-C9H20O2  PP560-C9H20O2  PP561-C9H20O2  PP562-C9H19O  PP563-C9H19O  PP564-C9H19O 
                   PP565-C9H19O  PP566-C9H19O  PP568-C9H18O  PP569-C9H18O  PP570-C9H18O  PP571-C9H18O  PP572-C9H18O  PP573-C9H18O  PP574-C9H18O  PP575-C9H18O 
                   PP576-C9H18O  PP577-C9H18O  PP578-C9H18O  PP579-C9H18O  PP580-C9H18O  PP581-C9H18O  nC8H18  PP584-C8H17  c8h16-2  c8h16-3 
                   c8h16-4  PP589-C8H15  PP590-C8H15  PP591-C8H15  PP592-C8H15  PP593-C8H15  PP594-C7H13O  PP595-C7H13O  PP596-C7H13O  PP597-C7H13O 
                   PP598-C7H13O  PP600-C8H17O2  PP601-C8H17O2  PP602-C8H17O2  PP603-C8H17O2  PP604-C8H17O2  PP605-C8H17O2  PP606-C8H17O2  PP607-C8H17O2  PP608-C8H17O2 
                   PP609-C8H17O2  PP610-C8H17O2  PP611-C8H17O2  PP612-C8H17O2  PP613-C8H17O2  PP614-C8H17O2  PP615-C8H17O2  PP616-C8H17O2  PP617-C8H17O2  PP618-C8H17O2 
                   PP619-C8H17O2  PP620-C8H17O2  PP621-C8H17O2  PP622-C8H17O2  PP623-C8H17O2  PP624-C8H17O2  PP625-C8H17O2  PP626-C8H17O4  PP627-C8H17O4  PP628-C8H17O4 
                   PP629-C8H17O4  PP630-C8H17O4  PP631-C8H17O4  PP632-C8H17O4  PP633-C8H17O4  PP634-C8H17O4  PP635-C8H17O4  PP636-C8H17O4  PP637-C8H17O4  PP638-C8H17O4 
                   PP639-C8H17O4  PP640-C8H17O4  PP641-C8H17O4  PP642-C8H17O4  PP643-C8H17O4  PP644-C8H17O4  PP645-C8H17O4  PP646-C8H17O4  PP647-C8H17O4  PP648-C8H16O3 
                   PP649-C8H16O3  PP650-C8H16O3  PP651-C8H16O3  PP652-C8H16O3  PP653-C8H16O3  PP654-C8H16O3  PP655-C8H16O3  PP656-C8H16O3  PP657-C8H16O3  PP658-C8H16O3 
                   PP659-C8H16O3  PP660-C8H16O3  PP661-C8H16O3  PP662-C8H16O3  PP663-C8H16O3  PP664-C8H16O3  PP665-C8H16O3  PP666-C8H16O3  PP667-C8H16O3  PP668-C8H16O3 
                   PP669-C8H16O3  PP670-C8H18O2  PP671-C8H18O2  PP672-C8H18O2  PP673-C8H18O2  PP674-C8H17O  PP675-C8H17O  PP676-C8H17O  PP677-C8H17O  PP679-C8H16O 
                   PP680-C8H16O  PP681-C8H16O  PP682-C8H16O  PP683-C8H16O  PP684-C8H16O  PP685-C8H16O  PP686-C8H16O  PP687-C8H16O  PP688-C8H16O  PP689-C8H16O 
                   PP690-C8H16O  nC5H12  c5h10-2  PP695-C5H9  PP696-C5H9  PP700-C5H11O2  PP701-C5H11O2  PP702-C5H11O2  PP703-C5H11O2  PP704-C5H11O2 
                   PP705-C5H11O2  PP706-C5H11O2  PP707-C5H11O2  PP708-C5H11O2  PP709-C5H11O2  PP710-C5H11O2  PP711-C5H11O2  PP712-C5H11O2  PP713-C5H11O4  PP714-C5H11O4 
                   PP715-C5H11O4  PP716-C5H11O4  PP717-C5H11O4  PP718-C5H11O4  PP719-C5H11O4  PP720-C5H11O4  PP721-C5H11O4  PP722-C5H11O4  PP723-C5H10O3  PP724-C5H10O3 
                   PP725-C5H10O3  PP726-C5H10O3  PP727-C5H10O3  PP728-C5H10O3  PP729-C5H10O3  PP730-C5H10O3  PP731-C5H10O3  PP732-C5H10O3  PP733-C5H12O2  PP734-C5H12O2 
                   PP735-C5H12O2  PP736-C5H11O  PP737-C5H11O  PP738-C5H11O  PP740-C5H10O  PP741-C5H10O  PP742-C5H10O  PP743-C5H10O  PP744-C5H10O  PP745-C5H10O 
                  """,
      reactions = "all",
      initial_state = state(temperature = 300.0,
                        pressure = OneAtm)    )



#-------------------------------------------------------------------------------
#  Species data 
#-------------------------------------------------------------------------------

species(name = "H",
    atoms = " H:1 ",
    thermo = (
       NASA( [  300.00,  1000.00], [  2.500000000E+00,   0.000000000E+00, 
                0.000000000E+00,   0.000000000E+00,   0.000000000E+00,
                2.547162000E+04,  -4.601176000E-01] ),
       NASA( [ 1000.00,  5000.00], [  2.500000000E+00,   0.000000000E+00, 
                0.000000000E+00,   0.000000000E+00,   0.000000000E+00,
                2.547162000E+04,  -4.601176000E-01] )
             ),
    note = "120186"
       )

species(name = "O",
    atoms = " O:1 ",
    thermo = (
       NASA( [  300.00,  1000.00], [  2.946428000E+00,  -1.638166500E-03, 
                2.421031000E-06,  -1.602843100E-09,   3.890696000E-13,
                2.914764000E+04,   2.963995000E+00] ),
       NASA( [ 1000.00,  5000.00], [  2.542059000E+00,  -2.755061000E-05, 
               -3.102803000E-09,   4.551067000E-12,  -4.368051000E-16,
                2.923080000E+04,   4.920308000E+00] )
             ),
    note = "120186"
       )

species(name = "OH",
    atoms = " H:1  O:1 ",
    thermo = (
       NASA( [  300.00,  1000.00], [  3.637266000E+00,   1.850910000E-04, 
               -1.676164600E-06,   2.387202000E-09,  -8.431442000E-13,
                3.606781000E+03,   1.358860500E+00] ),
       NASA( [ 1000.00,  5000.00], [  2.882730000E+00,   1.013974300E-03, 
               -2.276877000E-07,   2.174683000E-11,  -5.126305000E-16,
                3.886888000E+03,   5.595712000E+00] )
             ),
    note = "121286"
       )

species(name = "HO2",
    atoms = " H:1  O:2 ",
    thermo = (
       NASA( [  300.00,  1000.00], [  2.979963000E+00,   4.996697000E-03, 
               -3.790997000E-06,   2.354192000E-09,  -8.089024000E-13,
                1.762273000E+02,   9.222724000E+00] ),
       NASA( [ 1000.00,  5000.00], [  4.072191000E+00,   2.131296000E-03, 
               -5.308145000E-07,   6.112269000E-11,  -2.841164000E-15,
               -1.579727000E+02,   3.476029000E+00] )
             ),
    note = "20387"
       )

species(name = "H2O2",
    atoms = " H:2  O:2 ",
    thermo = (
       NASA( [  300.00,  1000.00], [  3.388753000E+00,   6.569226000E-03, 
               -1.485012500E-07,  -4.625805000E-09,   2.471514000E-12,
               -1.766314000E+04,   6.785363000E+00] ),
       NASA( [ 1000.00,  5000.00], [  4.573167000E+00,   4.336136000E-03, 
               -1.474688800E-06,   2.348903000E-10,  -1.431653600E-14,
               -1.800696000E+04,   5.011369000E-01] )
             ),
    note = "120186"
       )

species(name = "CH",
    atoms = "",
    thermo = (
       NASA( [    0.00,     0.00], [ 8.167923691E-316,  3.615560770E-313, 
               8.167922901E-316,  3.607392845E-313,  8.167923691E-316,
               3.607392845E-313,  8.167922901E-316] ),
       NASA( [    0.00,     0.00], [ 8.167922901E-316,  3.607392845E-313, 
               8.167923691E-316,  3.607392845E-313,  8.167922901E-316,
               3.615559122E-313,  8.167923691E-316] )
             ),
    note = "<none>"
       )

species(name = "HCO",
    atoms = "",
    thermo = (
       NASA( [    0.00,     0.00], [ 8.167923691E-316,  3.607392845E-313, 
               8.167922901E-316,  3.615559122E-313,  8.167923691E-316,
               3.607392845E-313,  8.167922901E-316] ),
       NASA( [    0.00,     0.00], [ 8.167922901E-316,  3.615559122E-313, 
               8.167923691E-316,  3.607392845E-313,  8.167922901E-316,
               3.607392845E-313,  8.167923691E-316] )
             ),
    note = "<none>"
       )

species(name = "S-CH2",
    atoms = "",
    thermo = (
       NASA( [    0.00,     0.00], [ 8.167923691E-316,  3.607392845E-313, 
               8.167922901E-316,  3.607392845E-313,  8.167923691E-316,
               3.607392845E-313,  8.167922901E-316] ),
       NASA( [    0.00,     0.00], [ 8.167922901E-316,  3.607392845E-313, 
               8.167923691E-316,  3.607392845E-313,  8.167922901E-316,
               3.615560776E-313,  8.167923691E-316] )
             ),
    note = "<none>"
       )

species(name = "T-CH2",
    atoms = "",
    thermo = (
       NASA( [    0.00,     0.00], [ 8.167923691E-316,  3.607392845E-313, 
               8.167922901E-316,  3.615560776E-313,  8.167923691E-316,
               3.607392845E-313,  8.167922901E-316] ),
       NASA( [    0.00,     0.00], [ 8.167922901E-316,  3.615560776E-313, 
               8.167923691E-316,  3.607392845E-313,  8.167922901E-316,
               3.607392845E-313,  8.167923691E-316] )
             ),
    note = "<none>"
       )

species(name = "CH2O",
    atoms = "",
    thermo = (
       NASA( [    0.00,     0.00], [ 8.167923691E-316,  3.607392845E-313, 
               8.167922901E-316,  3.607392845E-313,  8.167923691E-316,
               3.615559125E-313,  8.167922901E-316] ),
       NASA( [    0.00,     0.00], [ 8.167922901E-316,  3.607392845E-313, 
               8.167923691E-316,  3.615559125E-313,  8.167922901E-316,
               3.607392845E-313,  8.167946616E-316] )
             ),
    note = "<none>"
       )

species(name = "CH3",
    atoms = "",
    thermo = (
       NASA( [    0.00,     0.00], [ 8.167923691E-316,  3.615559125E-313, 
               8.167922901E-316,  3.607392845E-313,  8.167946616E-316,
               3.607392845E-313,  8.167947407E-316] ),
       NASA( [    0.00,     0.00], [ 8.167922901E-316,  3.607392845E-313, 
               8.167946616E-316,  3.607392845E-313,  8.167947407E-316,
               3.607392845E-313,  8.167934759E-316] )
             ),
    note = "<none>"
       )

species(name = "CH3O",
    atoms = " C:1  H:3  O:1 ",
    thermo = (
       NASA( [  300.00,  1000.00], [  2.106204000E+00,   7.216595100E-03, 
                5.338472000E-06,  -7.377636300E-09,   2.075610500E-12,
                9.786010700E+02,   1.315217700E+01] ),
       NASA( [ 1000.00,  5000.00], [  3.770799600E+00,   7.871497400E-03, 
               -2.656383900E-06,   3.944431400E-10,  -2.112616400E-14,
                1.278325200E+02,   2.929575000E+00] )
             ),
    note = "U10/77"
       )

species(name = "CH2OH",
    atoms = "",
    thermo = (
       NASA( [    0.00,     0.00], [ 8.167934759E-316,  3.615560781E-313, 
               8.167924482E-316,  3.607392845E-313,  8.167934759E-316,
               3.607392845E-313,  8.167924482E-316] ),
       NASA( [    0.00,     0.00], [ 8.167924482E-316,  3.607392845E-313, 
               8.167934759E-316,  3.607392845E-313,  8.167924482E-316,
               3.615559129E-313,  8.167934759E-316] )
             ),
    note = "<none>"
       )

species(name = "CH3O2",
    atoms = "",
    thermo = (
       NASA( [    0.00,     0.00], [ 8.167934759E-316,  3.607392845E-313, 
               8.167924482E-316,  3.615559129E-313,  8.167934759E-316,
               3.607392845E-313,  8.167924482E-316] ),
       NASA( [    0.00,     0.00], [ 8.167924482E-316,  3.615559129E-313, 
               8.167934759E-316,  3.607392845E-313,  8.167924482E-316,
               3.607392845E-313,  8.167946616E-316] )
             ),
    note = "<none>"
       )

species(name = "CH4",
    atoms = "",
    thermo = (
       NASA( [    0.00,     0.00], [ 8.167934759E-316,  3.607392845E-313, 
               8.167924482E-316,  3.607392845E-313,  8.167946616E-316,
               3.607392845E-313,  8.167947407E-316] ),
       NASA( [    0.00,     0.00], [ 8.167924482E-316,  3.607392845E-313, 
               8.167946616E-316,  3.607392845E-313,  8.167947407E-316,
               3.615560787E-313,  8.167941083E-316] )
             ),
    note = "<none>"
       )

species(name = "CH3OH",
    atoms = " C:1  H:4  O:1 ",
    thermo = (
       NASA( [  300.00,  1000.00], [  2.660115200E+00,   7.341507800E-03, 
                7.170050600E-06,  -8.793193700E-09,   2.390570400E-12,
               -2.535348400E+04,   1.123263100E+01] ),
       NASA( [ 1000.00,  5000.00], [  4.029061300E+00,   9.376592900E-03, 
               -3.050254200E-06,   4.358793300E-10,  -2.224723200E-14,
               -2.615791000E+04,   2.378195800E+00] )
             ),
    note = "T 4/82"
       )

species(name = "CH3O2H",
    atoms = "",
    thermo = (
       NASA( [    0.00,     0.00], [ 8.167941083E-316,  3.607392845E-313, 
               8.167935549E-316,  3.607392845E-313,  8.167946616E-316,
               3.615559133E-313,  8.167947407E-316] ),
       NASA( [    0.00,     0.00], [ 8.167935549E-316,  3.607392845E-313, 
               8.167946616E-316,  3.615559133E-313,  8.167947407E-316,
               3.607392845E-313,  8.167948197E-316] )
             ),
    note = "<none>"
       )

species(name = "C2H",
    atoms = " C:2  H:1 ",
    thermo = (
       NASA( [  300.00,  1000.00], [  1.985685400E+00,   1.336267000E-02, 
               -2.237456700E-05,   2.002158800E-08,  -6.860575600E-12,
                6.692124600E+04,   1.047644700E+01] ),
       NASA( [ 1000.00,  5000.00], [  4.516518500E+00,   2.070398100E-03, 
               -5.279708400E-07,   8.187832400E-11,  -6.023242400E-15,
                6.636836700E+04,  -1.704023500E+00] )
             ),
    note = "WAR 0"
       )

species(name = "C2O",
    atoms = " C:2  O:1 ",
    thermo = (
       NASA( [  300.00,  1000.00], [  3.368850000E+00,   8.241803000E-03, 
               -8.765145000E-06,   5.569262000E-09,  -1.540008600E-12,
                3.317081000E+04,   6.713314000E+00] ),
       NASA( [ 1000.00,  5000.00], [  4.849809000E+00,   2.947585000E-03, 
               -1.090728600E-06,   1.792562000E-10,  -1.115758500E-14,
                3.282055000E+04,  -6.453225000E-01] )
             ),
    note = "121286"
       )

species(name = "HCCO",
    atoms = " C:2  H:1  O:1 ",
    thermo = (
       NASA( [  300.00,  1000.00], [  5.047965050E+00,   4.453477920E-03, 
                2.268282770E-07,  -1.482094560E-09,   2.250741500E-13,
                1.965891800E+04,   4.818439480E-01] ),
       NASA( [ 1000.00,  4000.00], [  6.758072850E+00,   2.000400330E-03, 
               -2.027607310E-07,  -1.041131830E-10,   1.965164720E-14,
                1.901513280E+04,  -9.071262360E+00] )
             ),
    note = "32387"
       )

species(name = "C2H2",
    atoms = "",
    thermo = (
       NASA( [    0.00,     0.00], [ 8.167947407E-316,  3.607392845E-313, 
               8.167946616E-316,  3.615559137E-313,  8.167947407E-316,
               3.607392845E-313,  8.167946616E-316] ),
       NASA( [    0.00,     0.00], [ 8.167946616E-316,  3.615559137E-313, 
               8.167947407E-316,  3.607392845E-313,  8.167946616E-316,
               3.607392845E-313,  8.167947407E-316] )
             ),
    note = "<none>"
       )

species(name = "CH2CO",
    atoms = "",
    thermo = (
       NASA( [    0.00,     0.00], [ 8.167947407E-316,  3.607392845E-313, 
               8.167946616E-316,  3.607392845E-313,  8.167947407E-316,
               3.607392845E-313,  8.167946616E-316] ),
       NASA( [    0.00,     0.00], [ 8.167946616E-316,  3.607392845E-313, 
               8.167947407E-316,  3.607392845E-313,  8.167946616E-316,
               3.615560798E-313,  8.167964007E-316] )
             ),
    note = "<none>"
       )

species(name = "C2H3",
    atoms = "",
    thermo = (
       NASA( [    0.00,     0.00], [ 8.167947407E-316,  3.607392845E-313, 
               8.167946616E-316,  3.615560798E-313,  8.167964007E-316,
               3.607392845E-313,  8.167964798E-316] ),
       NASA( [    0.00,     0.00], [ 8.167946616E-316,  3.615560798E-313, 
               8.167964007E-316,  3.607392845E-313,  8.167964798E-316,
               3.607392845E-313,  8.167953731E-316] )
             ),
    note = "<none>"
       )

species(name = "CH2CHO",
    atoms = " C:2  H:3  O:1 ",
    thermo = (
       NASA( [  300.00,  1000.00], [  3.409062400E+00,   1.073857400E-02, 
                1.891492500E-06,  -7.158583100E-09,   2.867385100E-12,
                1.521476600E+03,   9.558290500E+00] ),
       NASA( [ 1000.00,  5000.00], [  5.975669900E+00,   8.130591400E-03, 
               -2.743624500E-06,   4.070304100E-10,  -2.176017100E-14,
                4.903217800E+02,  -5.045250900E+00] )
             ),
    note = "T04/83"
       )

species(name = "CH3CO",
    atoms = "",
    thermo = (
       NASA( [    0.00,     0.00], [ 8.167953731E-316,  3.615559141E-313, 
               8.167948197E-316,  3.607392845E-313,  8.167953731E-316,
               3.607392845E-313,  8.167948197E-316] ),
       NASA( [    0.00,     0.00], [ 8.167948197E-316,  3.607392845E-313, 
               8.167953731E-316,  3.607392845E-313,  8.167948197E-316,
               3.607392845E-313,  8.167953731E-316] )
             ),
    note = "<none>"
       )

species(name = "C2H4",
    atoms = "",
    thermo = (
       NASA( [    0.00,     0.00], [ 8.167953731E-316,  3.607392845E-313, 
               8.167948197E-316,  3.607392845E-313,  8.167953731E-316,
               3.615560803E-313,  8.167948197E-316] ),
       NASA( [    0.00,     0.00], [ 8.167948197E-316,  3.607392845E-313, 
               8.167953731E-316,  3.615560803E-313,  8.167948197E-316,
               3.607392845E-313,  8.167953731E-316] )
             ),
    note = "<none>"
       )

species(name = "CH3CHO",
    atoms = "",
    thermo = (
       NASA( [    0.00,     0.00], [ 8.167953731E-316,  3.615560803E-313, 
               8.167948197E-316,  3.607392845E-313,  8.167953731E-316,
               3.607392845E-313,  8.167948197E-316] ),
       NASA( [    0.00,     0.00], [ 8.167948197E-316,  3.607392845E-313, 
               8.167953731E-316,  3.607392845E-313,  8.167948197E-316,
               3.615559145E-313,  8.167953731E-316] )
             ),
    note = "<none>"
       )

species(name = "C2H5",
    atoms = "",
    thermo = (
       NASA( [    0.00,     0.00], [ 8.167953731E-316,  3.607392845E-313, 
               8.167948197E-316,  3.615559145E-313,  8.167953731E-316,
               3.607392845E-313,  8.167948197E-316] ),
       NASA( [    0.00,     0.00], [ 8.167948197E-316,  3.615559145E-313, 
               8.167953731E-316,  3.607392845E-313,  8.167948197E-316,
               1.379297264E-312,  -3.823136520E+01] )
             ),
    note = "<none>"
       )

species(name = "C2H6",
    atoms = "",
    thermo = (
       NASA( [    0.00,     0.00], [ 8.167953731E-316,  3.607392845E-313, 
               8.167948197E-316,  1.379297264E-312,  -3.823136520E+01,
                3.980014030E-01,  -8.476403310E-04] ),
       NASA( [    0.00,     0.00], [ 8.167948197E-316,  1.379297264E-312, 
               -3.823136520E+01,   3.980014030E-01,  -8.476403310E-04,
                8.756009610E-07,  -3.323806230E-10] )
             ),
    note = "<none>"
       )

species(name = "CH2CH2OH",
    atoms = " C:2  H:5  O:1 ",
    thermo = (
       NASA( [  300.00,  1000.00], [  1.401950800E+00,   2.154317500E-02, 
               -2.232651200E-06,  -1.446409200E-08,   8.048842000E-12,
               -3.846451900E+03,   1.913581800E+01] ),
       NASA( [ 1000.00,  5000.00], [  7.594401400E+00,   9.322933900E-03, 
               -3.030385400E-06,   4.321631900E-10,  -2.197003900E-14,
               -5.772785200E+03,  -1.396873500E+01] )
             ),
    note = "T 4/83"
       )

species(name = "CH3CHOH",
    atoms = " C:2  H:5  O:1 ",
    thermo = (
       NASA( [  300.00,  1000.00], [  2.481332800E+00,   1.679003600E-02, 
                3.775549900E-06,  -1.392349700E-08,   6.009519300E-12,
               -4.012005400E+03,   1.456845900E+01] ),
       NASA( [ 1000.00,  5000.00], [  6.766542400E+00,   1.163443600E-02, 
               -3.779065100E-06,   5.382887500E-10,  -2.731534500E-14,
               -5.609296900E+03,  -9.411207200E+00] )
             ),
    note = "T 4/83"
       )

species(name = "C2H5OH",
    atoms = "",
    thermo = (
       NASA( [    0.00,     0.00], [ 8.167964798E-316,  3.615559152E-313, 
               8.167964007E-316,  3.607392845E-313,   0.000000000E+00,
               3.607392845E-313,  8.166102368E-316] ),
       NASA( [    0.00,     0.00], [ 8.167964007E-316,  3.607392845E-313, 
                0.000000000E+00,  3.607392845E-313,  8.166102368E-316,
               3.607392845E-313,  8.167971912E-316] )
             ),
    note = "<none>"
       )

species(name = "C2H5O",
    atoms = " C:2  H:5  O:1 ",
    thermo = (
       NASA( [  300.00,  1000.00], [  1.730250400E+00,   1.690848900E-02, 
                3.999622100E-06,  -1.371118000E-08,   5.764360300E-12,
               -3.292248300E+03,   1.732295200E+01] ),
       NASA( [ 1000.00,  5000.00], [  6.011434600E+00,   1.216521900E-02, 
               -4.044960400E-06,   5.907658800E-10,  -3.096959500E-14,
               -4.936699200E+03,  -6.803342800E+00] )
             ),
    note = "T11/82"
       )

species(name = "C3H2",
    atoms = " C:3  H:2 ",
    thermo = (
       NASA( [  300.00,  1000.00], [  2.691077000E+00,   1.480366400E-02, 
               -3.250551000E-06,  -8.644363000E-09,   5.284877000E-12,
                5.219072000E+04,   8.757391000E+00] ),
       NASA( [ 1000.00,  5000.00], [  6.530853000E+00,   5.870316000E-03, 
               -1.720776000E-06,   2.127498000E-10,  -8.291910000E-15,
                5.115213000E+04,  -1.122727800E+01] )
             ),
    note = "121686"
       )

species(name = "C3H3",
    atoms = " C:3  H:3 ",
    thermo = (