ELEMENTS
  C  H  O  N
END
SPECIES
H               O               OH              HO2             H2O2            
CH              HCO             S-CH2           T-CH2           CH2O            
CH3             CH3O            CH2OH           CH3O2           CH4             
CH3OH           CH3O2H          C2H             C2O             HCCO            
C2H2            CH2CO           C2H3            CH2CHO          CH3CO           
C2H4            CH3CHO          C2H5            C2H6            CH2CH2OH        
CH3CHOH         C2H5OH          C2H5O           C3H2            C3H3            
C3H4            C3H4P           C3H5            C3H6            N-C3H7          
I-C3H7          C3H8            C4H             C4H2            H2C4O           
N-C4H3          I-C4H3          C4H4            N-C4H5          I-C4H5          
C4H6            C4H612          C4H7            P-C4H8          S-C4H8          
C-2-C4H8        S-C4H9          P-C4H9          C4H10           C5H2            
C5H3            C5H5            C5H6            C5H4O           C5H5O           
C5H4OH          C6H             C6H2            C6H3            P-C6H4          
C-C6H4          N-C6H5          I-C6H5          PC6H6          N-C6H7          
I-C6H7          C-C6H7          C6H8            S-C6H9          P-C6H9          
C6H10           C6H5O           C6H5OH          A1              A1-             
A1C2H           A1C2H-          A1C2H*          N-A1C2H2        I-A1C2H2        
C               CO              CO2             H2              H2O             
O2              N2              C2H3CO          C2H3CHO         
C2H4CHO         C2H5CO          C2H5CHO         CH3COCH3        CH3COCH2        
CH2CH2CH2CHO    CH3CHCH2CHO     CH3CH2CHCHO     C2H5COCH2       N-C3H7CHO       
N-C3H7CO        CH2CHCH2CHO     AC3H5CO         CH2CH2COCH3     C2H3COCH3       
END
THERMO ALL
   300.000  1000.000  5000.000
AR                      AR  1               G  0300.00   5000.00  1000.00      1
 0.02500000E+02 0.00000000E+00 0.00000000E+00 0.00000000E+00 0.00000000E+00    2
-0.07453750E+04 0.04366000E+02 0.02500000E+02 0.00000000E+00 0.00000000E+00    3
 0.00000000E+00 0.00000000E+00-0.07453750E+04 0.04366000E+02                   4
N2                      N   2               G  0300.00   5000.00  1000.00      1
 0.02926640E+02 0.14879768E-02-0.05684760E-05 0.10097038E-09-0.06753351E-13    2
-0.09227977E+04 0.05980528E+02 0.03298677E+02 0.14082404E-02-0.03963222E-04    3
 0.05641515E-07-0.02444854E-10-0.10208999E+04 0.03950372E+02                   4
H                       H   1               G  0300.00   5000.00  1000.00      1
 0.02500000E+02 0.00000000E+00 0.00000000E+00 0.00000000E+00 0.00000000E+00    2
 0.02547162E+06-0.04601176E+01 0.02500000E+02 0.00000000E+00 0.00000000E+00    3
 0.00000000E+00 0.00000000E+00 0.02547162E+06-0.04601176E+01                   4
O                       O   1               G  0300.00   5000.00  1000.00      1
 0.02542059E+02-0.02755061E-03-0.03102803E-07 0.04551067E-10-0.04368051E-14    2
 0.02923080E+06 0.04920308E+02 0.02946428E+02-0.16381665E-02 0.02421031E-04    3
-0.16028431E-08 0.03890696E-11 0.02914764E+06 0.02963995E+02                   4
OH                      O   1H   1          G  0300.00   5000.00  1000.00      1
 0.02882730E+02 0.10139743E-02-0.02276877E-05 0.02174683E-09-0.05126305E-14    2
 0.03886888E+05 0.05595712E+02 0.03637266E+02 0.01850910E-02-0.16761646E-05    3
 0.02387202E-07-0.08431442E-11 0.03606781E+05 0.13588605E+01                   4
HO2                     H   1O   2          G  0300.00   5000.00  1000.00      1
 0.04072191E+02 0.02131296E-01-0.05308145E-05 0.06112269E-09-0.02841164E-13    2
-0.15797270E+03 0.03476029E+02 0.02979963E+02 0.04996697E-01-0.03790997E-04    3
 0.02354192E-07-0.08089024E-11 0.01762273E+04 0.09222724E+02                   4
H2O2                    H   2O   2          G  0300.00   5000.00  1000.00      1
 0.04573167E+02 0.04336136E-01-0.14746888E-05 0.02348903E-08-0.14316536E-13    2
-0.01800696E+06 0.05011369E+01 0.03388753E+02 0.06569226E-01-0.14850125E-06    3
-0.04625805E-07 0.02471514E-10-0.01766314E+06 0.06785363E+02                   4
H2                      H   2               G  0300.00   5000.00  1000.00      1
 0.02991423E+02 0.07000644E-02-0.05633828E-06-0.09231578E-10 0.15827519E-14    2
-0.08350340E+04-0.13551101E+01 0.03298124E+02 0.08249441E-02-0.08143015E-05    3
-0.09475434E-09 0.04134872E-11-0.10125209E+04-0.03294094E+02                   4
H2O                     H   2O   1          G  0300.00   5000.00  1000.00      1
 0.02672145E+02 0.03056293E-01-0.08730260E-05 0.12009964E-09-0.06391618E-13    2
-0.02989921E+06 0.06862817E+02 0.03386842E+02 0.03474982E-01-0.06354696E-04    3
 0.06968581E-07-0.02506588E-10-0.03020811E+06 0.02590232E+02                   4
O2                      O   2               G  0300.00   5000.00  1000.00      1
 0.03697578E+02 0.06135197E-02-0.12588420E-06 0.01775281E-09-0.11364354E-14    2
-0.12339301E+04 0.03189165E+02 0.03212936E+02 0.11274864E-02-0.05756150E-05    3
 0.13138773E-08-0.08768554E-11-0.10052490E+04 0.06034737E+02                   4
C                       C   100  000  000  0G   300.000  5000.000             R1
 0.25769424E+01-0.13903944E-03 0.69481807E-07-0.67414021E-11-0.43389004E-16    2
 0.85425220E+05 0.43358122E+01 0.25279476E+01-0.12519400E-03 0.22544496E-06    3
-0.18489024E-09 0.57291741E-13 0.85448374E+05 0.46274790E+01                   4
CO                      C   1O   1          G  0300.00   5000.00  1000.00      1
 0.03025078E+02 0.14426885E-02-0.05630827E-05 0.10185813E-09-0.06910951E-13    2
-0.14268350E+05 0.06108217E+02 0.03262451E+02 0.15119409E-02-0.03881755E-04    3
 0.05581944E-07-0.02474951E-10-0.14310539E+05 0.04848897E+02                   4
CO2                     C   1O   2          G  0300.00   5000.00  1000.00      1
 0.04453623E+02 0.03140168E-01-0.12784105E-05 0.02393996E-08-0.16690333E-13    2
-0.04896696E+06-0.09553959E+01 0.02275724E+02 0.09922072E-01-0.10409113E-04    3
 0.06866686E-07-0.02117280E-10-0.04837314E+06 0.10188488E+02                   4
HCO                     H   1C   1O   1     G  0300.00   5000.00  1000.00      1
 0.03557271E+02 0.03345572E-01-0.13350060E-05 0.02470572E-08-0.01713850E-12    2
 0.03916324E+05 0.05552299E+02 0.02898329E+02 0.06199146E-01-0.09623084E-04    3
 0.10898249E-07-0.04574885E-10 0.04159922E+05 0.08983614E+02                   4
CH2O                    C   1H   2O   10   0G   300.000  5000.000              1
 2.99560618E 00 6.68132119E-03-2.62895469E-06 4.73715289E-10-3.21251747E-14    2
-1.53203691E 04 6.91257238E 00 1.65273118E 00 1.26314387E-02-1.88816848E-05    3
 2.05003143E-08-8.41323712E-12-1.48654043E 04 1.37848196E 01                   4
CH3O                    C   1H   3O   1    0G   300.000  5000.000             R1
 0.37707996E+01 0.78714974E-02-0.26563839E-05 0.39444314E-09-0.21126164E-13    2
 0.12783252E+03 0.29295750E+01 0.21062040E+01 0.72165951E-02 0.53384720E-05    3
-0.73776363E-08 0.20756105E-11 0.97860107E+03 0.13152177E+02                   4
CH                      C   1H   1    0    0G   300.000  5000.000             R1
 2.19622326E 00 2.34038103E-03-7.05820128E-07 9.00758218E-11-3.85504007E-15    2
 7.08672344E 04 9.17837334E 00 3.20020247E 00 2.07287562E-03-5.13443138E-06    3
 5.73389025E-09-1.95553318E-12 7.04525938E 04 3.33158779E 00                   4
S-CH2                   C   1H   2    0    0G   300.000  5000.000             R1
 3.55288863E 00 2.06678826E-03-1.91411601E-07-1.10467337E-10 2.02134960E-14    2
 4.98497539E 04 1.68657005E 00 3.97126508E 00-1.69908875E-04 1.02536887E-06    3
 2.49255083E-09-1.98126628E-12 4.98936758E 04 5.75320721E-02                   4
T-CH2                   C   1H   2    0    0G   300.000  5000.000             R1
 3.63640785E 00 1.93305663E-03-1.68701632E-07-1.00989939E-10 1.80825576E-14    2
 4.53413398E 04 2.15656066E 00 3.76223707E 00 1.15981908E-03 2.48958543E-07    3
 8.80083562E-10-7.33243544E-13 4.53679063E 04 1.71257758E 00                   4
CH3                     C   1H   3    0    0G   300.000  5000.000             R1
 2.84405160E 00 6.13797410E-03-2.23034522E-06 3.78516080E-10-2.45215903E-14    2
 1.64378086E 04 5.45269728E 00 2.43044281E 00 1.11240987E-02-1.68022034E-05    3
 1.62182872E-08-5.86495262E-12 1.64237813E 04 6.78979397E 00                   4
CH4                     C   1H   4    0    0G   300.000  5000.000              1
 1.68347883E 00 1.02372356E-02-3.87512864E-06 6.78558487E-10-4.50342312E-14    2
-1.00807871E 04 9.62339497E 00 7.78741479E-01 1.74766835E-02-2.78340904E-05    3
 3.04970804E-08-1.22393068E-11-9.82522852E 03 1.37221947E 01                   4
CH2OH                   H   3C   1O   1    0G   300.000  5000.00              R1
 0.47235041E+01 0.61020441E-02-0.19132094E-05 0.27607427E-09-0.14548367E-13    2
-0.39329165E+04-0.85243821E-01 0.33368406E+01 0.65881237E-02 0.29979328E-05    3
-0.58719714E-08 0.21229572E-11-0.33168267E+04 0.80668154E+01                   4
CH3O2                   C   1H   3O   2    0G   300.000  5000.000              1
 0.66812963E 01 0.80057271E-02-0.27188507E-05 0.40631365E-09-0.21927725E-13    2
 0.52621851E 03-0.99423847E 01 0.20986490E 01 0.15786357E-01 0.75683261E-07    3
-0.11274587E-07 0.56665133E-11 0.20695879E 04 0.15007068E 02           1471.7  4
CH3OH                   C   1H   4O   1    0G   300.     5000.                 1
 0.40290613E+01 0.93765929E-02-0.30502542E-05 0.43587933E-09-0.22247232E-13    2
-0.26157910E+05 0.23781958E+01 0.26601152E+01 0.73415078E-02 0.71700506E-05    3
-0.87931937E-08 0.23905704E-11-0.25353484E+05 0.11232631E+02                   4
CH3O2H                  C   1H   4O   2    0G   300.000  5000.000              1
 0.66812963E 01 0.80057271E-02-0.27188507E-05 0.40631365E-09-0.21927725E-13    2
 0.52621851E 03-0.99423847E 01 0.20986490E 01 0.15786357E-01 0.75683261E-07    3
-0.11274587E-07 0.56665133E-11 0.20695879E 04 0.15007068E 02           1471.7  4
C2H                     C   2H   1    0    0G   300.000  5000.000 1000.00      1
 0.45165185E+01 0.20703981E-02-0.52797084E-06 0.81878324E-10-0.60232424E-14    2
 0.66368367E+05-0.17040235E+01 0.19856854E+01 0.13362670E-01-0.22374567E-04    3
 0.20021588E-07-0.68605756E-11 0.66921246E+05 0.10476447E+02                   4
C2O                     C   2O   1          G  0300.00   5000.00  1000.00      1
 0.04849809E+02 0.02947585E-01-0.10907286E-05 0.01792562E-08-0.11157585E-13    2
 0.03282055E+06-0.06453225E+01 0.03368850E+02 0.08241803E-01-0.08765145E-04    3
 0.05569262E-07-0.15400086E-11 0.03317081E+06 0.06713314E+02                   4
HCCO                    H   1C   2O   1     G   300.000  4000.000  1000.00     1
 6.75807285E+00 2.00040033E-03-2.02760731E-07-1.04113183E-10 1.96516472E-14    2
 1.90151328E+04-9.07126236E+00 5.04796505E+00 4.45347792E-03 2.26828277E-07    3
-1.48209456E-09 2.25074150E-13 1.96589180E+04 4.81843948E-01                   4
C2H2                    C   2H   200  000  0G   300.000  5000.000              1
 4.43677044E 00 5.37603907E-03-1.91281674E-06 3.28637895E-10-2.15670953E-14    2
 2.56676641E 04-2.80033827E 00 2.01356220E 00 1.51904458E-02-1.61631888E-05    3
 9.07899178E-09-1.91274600E-12 2.61244434E 04 8.80537796E 00                   4
CH2CO                   C   2H   2O   1    0G   300.000  5000.                 1
 0.60388174E+01 0.58048405E-02-0.19209538E-05 0.27944846E-09-0.14588675E-13    2
-0.85834023E+04-0.76575813E+01 0.29749708E+01 0.12118712E-01-0.23450457E-05    3
-0.64666850E-08 0.39056492E-11-0.76326367E+04 0.86735525E+01           1419.1  4
C2H3                    C   2H   3    0    0G   300.000  5000.000             R1
 5.93346787E+00 4.01774561E-03-3.96673954E-07-1.44126655E-10 2.37864351E-14    2
 3.18543457E+04-8.53031254E+00 2.45927644E+00 7.37147639E-03 2.10987287E-06    3
-1.32164213E-09-1.18478383E-12 3.33522500E+04 1.15562019E+01                   4
CH3CO                   C   2H   3O   1    0G   300.000  5000.0                1
 0.56122789E+01 0.84498860E-02-0.28541472E-05 0.42383763E-09-0.22684037E-13    2
-0.51878633E+04-0.32749491E+01 0.31252785E+01 0.97782202E-02 0.45214483E-05    3
-0.90094616E-08 0.31937179E-11-0.41085078E+04 0.11228854E+02                   4
C2H4                    C   2H   4    0    0G   300.000  5000.000              1
 3.52841878E 00 1.14851845E-02-4.41838529E-06 7.84460053E-10-5.26684849E-14    2
 4.42828857E 03 2.23038912E 00-8.61487985E-01 2.79616285E-02-3.38867721E-05    3
 2.78515220E-08-9.73787891E-12 5.57304590E 03 2.42114868E 01                   4
CH2CHO                  O   1H   3C   2    0G   300.     5000.                 1
 0.59756699E+01 0.81305914E-02-0.27436245E-05 0.40703041E-09-0.21760171E-13    2
 0.49032178E+03-0.50452509E+01 0.34090624E+01 0.10738574E-01 0.18914925E-05    3
-0.71585831E-08 0.28673851E-11 0.15214766E+04 0.95582905E+01           1552.7  4
CH3CHO                  C   2O   1H   4    0G   300.000  5000.000              1
 0.58686504E+01 0.10794241E-01-0.36455303E-05 0.54129123E-09-0.28968442E-13    2
-0.22645687E+05-0.60129461E+01 0.25056953E+01 0.13369907E-01 0.46719533E-05    3
-0.11281401E-07 0.42635661E-11-0.21245887E+05 0.13350887E+02                   4
C2H5                    C   2H   5    0    0G   300.000  5000.000             R1
 7.19048023E+00 6.48407731E-03-6.42806469E-07-2.34787939E-10 3.88087728E-14    2
 1.06745488E+04-1.47808924E+01 2.69070172E+00 8.71913321E-03 4.41983866E-06    3
 9.33870314E-10-3.92777347E-12 1.28704043E+04 1.21381950E+01                   4
C2H6                    C   2H   6    0    0G   300.000  4000.000              1
 0.48259382E 01 0.13840429E-01-0.45572588E-05 0.67249672E-09-0.35981614E-13    2
-0.12717793E 05-0.52395067E 01 0.14625387E 01 0.15494667E-01 0.57805073E-05    3
-0.12578319E-07 0.45862671E-11-0.11239176E 05 0.14432295E 02                   4
C2H5O                   O   1C   2H   5    0G   300.000  5000.0                1
 0.60114346E+01 0.12165219E-01-0.40449604E-05 0.59076588E-09-0.30969595E-13    2
-0.49366992E+04-0.68033428E+01 0.17302504E+01 0.16908489E-01 0.39996221E-05    3
-0.13711180E-07 0.57643603E-11-0.32922483E+04 0.17322952E+02                   4
CH2CH2OH                H   5C   2O   1    0G   300.000  5000.                 1
 0.75944014E+01 0.93229339E-02-0.30303854E-05 0.43216319E-09-0.21970039E-13    2
-0.57727852E+04-0.13968735E+02 0.14019508E+01 0.21543175E-01-0.22326512E-05    3
-0.14464092E-07 0.80488420E-11-0.38464519E+04 0.19135818E+02                   4
CH3CHOH                 C   2O   1H   5    0G   300.000  5000.                 1
 0.67665424E+01 0.11634436E-01-0.37790651E-05 0.53828875E-09-0.27315345E-13    2
-0.56092969E+04-0.94112072E+01 0.24813328E+01 0.16790036E-01 0.37755499E-05    3
-0.13923497E-07 0.60095193E-11-0.40120054E+04 0.14568459E+02                   4
C2H5OH                  C   2H   6O   1    0G   300.000  5000.000              1
 0.79087286E+01 0.12227729E-01-0.35144249E-05 0.42572035E-09-0.15468177E-13    2
-0.31943867E+05-0.16426895E+02 0.16487226E+01 0.21139644E-01 0.32672033E-05    3
-0.16375399E-07 0.73521788E-11-0.29673598E+05 0.18271423E+02                   4
C3H2                    C   3H   2          G  0300.00   5000.00  1000.00      1
 0.06530853E+02 0.05870316E-01-0.01720776E-04 0.02127498E-08-0.08291910E-13    2
 0.05115213E+06-0.11227278E+02 0.02691077E+02 0.14803664E-01-0.03250551E-04    3
-0.08644363E-07 0.05284877E-10 0.05219072E+06 0.08757391E+02                   4
C3H3              U12/77C   3H   3    0    0G   300.000  5000.000              1
 0.80916252E+01 0.37372850E-02 0.13886647E-05-0.12298604E-08 0.20681585E-12    2
 0.35437793E+05-0.18204468E+02 0.25097322E+01 0.17103866E-01-0.45710858E-05    3
-0.82841574E-08 0.54362287E-11 0.37040680E+05 0.11011264E+02                   4
C3H4P                   H   4C   3    0    0G   300.000  5000.000              1
 0.65344639E+01 0.10337744E-01-0.34001059E-05 0.49091375E-09-0.25363748E-13    2
 0.19441707E+05-0.11395943E+02 0.26681128E+01 0.16177788E-01 0.97236625E-06    3
-0.11532656E-07 0.56520986E-11 0.20800957E+05 0.98740911E+01                   4
C3H4                    C   3H   4          G  0300.00   5000.00  1400.00      1
 0.09776256E+02 0.05302138E-01-0.03701118E-05-0.03026386E-08 0.05089581E-12    2
 0.01954972E+06-0.03077061E+03 0.02539831E+02 0.01633437E+00-0.01764950E-04    3
-0.04647365E-07 0.01729131E-10 0.02251243E+06 0.09935702E+02                   4
C3H5                    C   3H   5    0    0G   300.00   5000.00               1
 0.79091978E 01 0.12115255E-01-0.41175863E-05 0.61566796E-09-0.33235733E-13    2
 0.12354156E 05-0.19672333E 02-0.54100400E 00 0.27284101E-01-0.96365329E-06    3
-0.19129462E-07 0.98394175E-11 0.15130395E 05 0.26067337E 02     0.00000000    4
C3H6                    C   3H   6          G  0300.00   5000.00  1000.00      1
 0.06732257E+02 0.14908336E-01-0.04949899E-04 0.07212022E-08-0.03766204E-12    2
-0.09235703E+04-0.13313348E+02 0.14933071E+01 0.02092517E+00 0.04486794E-04    3
-0.16689121E-07 0.07158146E-10 0.10748264E+04 0.16145340E+02                   4
C3H6O                   C   3H   6O   1    0G   300.     5000.                 1
 0.87072573E+01 0.15987653E-01-0.53762797E-05 0.79422535E-09-0.42212622E-13    2
-0.69370352E+04-0.22579315E+02 0.48378503E+00 0.28574701E-01 0.28022350E-05    3
-0.22371523E-07 0.10581544E-10-0.40665557E+04 0.22616104E+02                   4
N-C3H7                  C   3H   7          G  0300.00   5000.00  1000.00      1
 0.07978290E+02 0.15761134E-01-0.05173243E-04 0.07443892E-08-0.03824978E-12    2
 0.07579402E+05-0.01935611E+03 0.01922536E+02 0.02478927E+00 0.01810249E-04    3
-0.01783265E-06 0.08582996E-10 0.09713281E+05 0.13992715E+02                   4
I-C3H7                  C   3H   7          G  0300.00   5000.00  1000.00      1
 0.08063369E+02 0.15744876E-01-0.05182391E-04 0.07477245E-08-0.03854422E-12    2
 0.05313871E+05-0.02192646E+03 0.01713299E+02 0.02542616E+00 0.15808083E-05    3
-0.01821286E-06 0.08827710E-10 0.07535808E+05 0.12979008E+02                   4
N-C3H7O                 C   3H   7O   1    0G   300.000  5000.000 1390.00     21
 1.07032203E+01 1.60908541E-02-5.48805425E-06 8.50429828E-10-4.92755368E-14    2
-1.01405641E+04-3.13059917E+01-5.95838475E-01 4.10450833E-02-2.63340323E-05    3
 8.72638287E-09-1.19115039E-12-6.04569631E+03 2.99328965E+01                   4
N-C3H7O2                C   3H   7O   2    0G   300.000  5000.000 1388.00     31
 1.27232775E+01 1.67336808E-02-5.75943184E-06 8.97769493E-10-5.22275065E-14    2
-1.08819071E+04-3.81978229E+01 1.56301709E+00 4.26192697E-02-2.96615075E-05    3
 1.14187326E-08-1.89894471E-12-6.88086375E+03 2.19842933E+01                   4
N-C3H7O2H               C   3H   8O   2    0G   300.000  5000.000 1388.00     41
 1.50657154E+01 1.70865595E-02-5.93183927E-06 9.30136673E-10-5.43384935E-14    2
-3.01372951E+04-5.15067438E+01 7.83525746E-01 5.04826223E-02-3.65089942E-05    3
 1.40377750E-08-2.26737156E-12-2.51105573E+04 2.53041175E+01                   4
C3H8                    C   3H   8          G  0300.00   5000.00  1000.00      1
 0.07525217E+02 0.01889034E+00-0.06283924E-04 0.09179373E-08-0.04812410E-12    2
-0.16464548E+05-0.01784390E+03 0.08969208E+01 0.02668986E+00 0.05431425E-04    3
-0.02126000E-06 0.09243330E-10-0.13954918E+05 0.01935533E+03                   4
C4H                     C   4H   1    0    0G   300.000  3000.000              1
 0.77697593E+01 0.49829976E-02-0.17628546E-05 0.28144284E-09-0.16689869E-13    2
 0.94345900E+05-0.14165274E+02 0.13186295E+01 0.38582956E-01-0.71385623E-04    3
 0.65356359E-07-0.22617666E-10 0.95456106E+05 0.15567583E+02                   4
C4H2                    C   4H   2    0    0G   300.000  5000.000              1
 0.90314074E+01 0.60472526E-02-0.19487888E-05 0.27548630E-09-0.13856080E-13    2
 0.49863400E+05-0.23850677E+02 0.40051918E+01 0.19810002E-01-0.98658775E-05    3
-0.66351582E-08 0.60774129E-11 0.51156693E+05 0.18457365E+01                   4
N-C4H3                  C   4H   3    0    0G   300.000  3000.000              1
 0.54328279E+01 0.16860981E-01-0.94313109E-05 0.25703895E-08-0.27456309E-12    2
 0.61600680E+05-0.15673981E+01-0.31684113E+00 0.46912100E-01-0.68093810E-04    3
 0.53179921E-07-0.16523005E-10 0.62476199E+05 0.24622559E+02                   4
I-C4H3                  C   4H   3    0    0G   300.000  3000.000              1
 0.90978165E+01 0.92207119E-02-0.33878441E-05 0.49160498E-09-0.14529780E-13    2
 0.56600574E+05-0.19802597E+02 0.20830412E+01 0.40834274E-01-0.62159685E-04    3
 0.51679358E-07-0.17029184E-10 0.58005129E+05 0.13617462E+02                   4
C4H4                    C   4H   4    0    0G   300.000  3000.000              1
 0.66507092E+01 0.16129434E-01-0.71938875E-05 0.14981787E-08-0.11864110E-12    2
 0.31195992E+05-0.97952118E+01-0.19152479E+01 0.52750878E-01-0.71655944E-04    3
 0.55072423E-07-0.17286228E-10 0.32978504E+05 0.31419983E+02                   4
N-C4H5                  C   4H   5          G  0300.00   4000.00  1000.00      1
 0.12865971E+02 0.07943369E-01-0.08626466E-05-0.04655635E-08 0.08951131E-12    2
 0.03783552E+06-0.04182502E+03 0.02995240E+02 0.02288456E+00 0.01975471E-04    3
-0.11482454E-07 0.03197823E-10 0.04142218E+06 0.12894539E+02                   4
I-C4H5                  C   4H   5    0    0G  0300.00   4000.00  1000.00      1
 0.11997762E+02 0.07990580E-01-0.08098172E-05-0.04568733E-08 0.08636911E-12    2
 0.03228493E+06-0.03528494E+03 0.03879443E+02 0.01997663E+00 0.01872777E-04    3
-0.09306953E-07 0.02386116E-10 0.03526859E+06 0.09842152E+02                   4
C4H6                    C   4H   6    0    0G  0300.00   4000.00  1000.00      1
 0.12544366E+02 0.09596525E-01-0.09187012E-05-0.05429640E-08 0.10053636E-12    2
 0.08597330E+05-0.04217450E+03 0.01931624E+02 0.02479030E+00 0.03018071E-04    3
-0.11546856E-07 0.02586623E-10 0.12554682E+05 0.01701999E+03                   4
C4H612                  C   4H   6    0    0G   300.     3000.     1000.0      1
 0.1781557E+02 -0.4257502E-02  0.1051185E-04 -0.4473844E-08  0.5848138E-12     2  
 0.1267342E+05 -0.6982662E+02  0.1023467E+01  0.3495919E-01 -0.2200905E-04     3
 0.6942272E-08 -0.7879187E-12  0.1811799E+05  0.1975066E+02  0.1950807E+05     4
C4H7                    C   4H   7    0    0G   300.     5000.                 1
  0.5440662E 01  0.2744603E-01 -0.1365496E-04  0.3340352E-08 -0.3290050E-12    2
  0.1903712E 05 -0.2875965E 01  0.9278151E 01 -0.2956305E-01  0.1632866E-03    3
 -0.2000576E-06  0.7934605E-10  0.1963813E 05 -0.1296553E 02                   4
C4H7O      6/26/95      C   4H   7O   1    0G   300.000  5000.000 1380.00      1
 1.30026331E+01 1.63104877E-02-5.57642899E-06 8.65670629E-10-5.02255667E-14    2
-1.25523385E+04-4.02608515E+01 2.67256826E+00 3.71198825E-02-2.06862859E-05    3
 5.48873888E-09-5.35864183E-13-8.58050888E+03 1.64848950E+01                   4
P-C4H8                  C   4H   8    0    0G   300.000  5000.                 1
 0.20535841E+01 0.34350507E-01-0.15883197E-04 0.33089662E-08-0.25361045E-12    2
-0.21397231E+04 0.15543201E+02 0.11811380E+01 0.30853380E-01 0.50865247E-05    3
-0.24654888E-07 0.11110193E-10-0.17904004E+04 0.21062469E+02           2036.1  4
S-C4H8                  C   4H   8    0    0G   300.000  5000.00               1
 0.82797676E+00 0.35864539E-01-0.16634498E-04 0.34732759E-08-0.26657398E-12    2
-0.30521033E+04 0.21342545E+02 0.12594252E+01 0.27808424E-01 0.87013932E-05    3
-0.24402205E-07 0.98977710E-11-0.29647742E+04 0.20501129E+02           2047.4  4
C-2-C4H8                C   4H   8    0    0G   300.000  5000.                 1
 0.11097383E+01 0.35542578E-01-0.16481703E-04 0.34412202E-08-0.26411468E-12    2
-0.26507607E+04 0.19353516E+02 0.24108791E+01 0.25147773E-01 0.98473047E-05    3
-0.22716758E-07 0.86585895E-11-0.27758694E+04 0.14084535E+02           2071.7  4
P-C4H9                  C   4H   9    0    0G   300.000  5000.000              1
 0.90049105E 01 0.24003319E-01-0.89551868E-05 0.15322594E-08-0.98247040E-13    2
 0.34630112E 04-0.20525192E 02 0.21864157E 01 0.33004966E-01 0.30301208E-05    3
-0.24040720E-07 0.11306377E-10 0.58979180E 04 0.17254166E 02        2381.1     4
S-C4H9                  C   4H   9    0    0G   300.000  5000.000              1
 0.94282923E 01 0.21911845E-01-0.72831863E-05 0.10622090E-08-0.55580591E-13    2
 0.36300923E 04-0.22419800E 02 0.69567555E 00 0.33100396E-01 0.63189173E-05    3
-0.27052078E-07 0.12000780E-10 0.68517148E 04 0.26270721E 02                   4
C4H10                   C   4H  10    0    00   300.00  5000.00                1
 0.10526502E 02 0.23627248E-01-0.78760077E-05 0.11501951E-08-0.60251446E-13    2
-0.20519313E 05-0.32140045E 02 0.15223389E 01 0.34286838E-01 0.81006638E-05    3
-0.29214874E-07 0.12672835E-10-0.17125832E 05 0.18349014E 02           2324.3  4
H2C4O                   H   2C   4O   1     G  0300.00   4000.00  1000.00      1
 0.01026888E+03 0.04896164E-01-0.04885081E-05-0.02708566E-08 0.05107013E-12    2
 0.02346903E+06-0.02815985E+03 0.04810971E+02 0.01313999E+00 0.09865073E-05    3
-0.06120720E-07 0.01640003E-10 0.02545803E+06 0.02113424E+02                   4
C5H2                    C   5H   2          G  0300.00   5000.00  1000.00      1
 0.01132917E+03 0.07424057E-01-0.02628189E-04 0.04082541E-08-0.02301333E-12    2
 0.07878706E+06-0.03617117E+03 0.03062322E+02 0.02709998E+00-0.01009170E-03    3
-0.01272745E-06 0.09167219E-10 0.08114969E+06 0.07071078E+02                   4
C5H3                    C   5H   3          G  0300.00   5000.00  1000.00      1
 0.01078762E+03 0.09539619E-01-0.03206745E-04 0.04733323E-08-0.02512135E-12    2
 0.06392904E+06-0.03005444E+03 0.04328720E+02 0.02352480E+00-0.05856723E-04    3
-0.01215449E-06 0.07726478E-10 0.06588531E+06 0.04173259E+02                   4
C5H5                    C   5H   5    0    0G   200.000  6000.000              1
 0.10844066D+02 0.15392837D-01-0.55630421D-05 0.90189371D-09-0.54156531D-13    2
 0.26900566D+05-0.35254948D+02-0.95903718D+00 0.31396859D-01 0.26723794D-04    3
-0.68941872D-07 0.33301856D-10 0.30729120D+05 0.29072816D+02 0.31954258D+05    4
C5H6                    C   5H   6    0    0G   298.150  5000.000              1
 0.10624320E 02 0.17735448E-01-0.62330446E-05 0.97308317E-09-0.55500130E-13    2
 0.10772188E 05-0.35773422E 02-0.28978958E 01 0.43484777E-01-0.33511005E-05    3
-0.31103756E-07 0.16912444E-10 0.15084742E 05 0.36894760E 02 0.16068486E 05    4
C5H4OH                  C   5H   5O   1    0G   200.000  6000.000              1
 0.13367912D+02 0.15205785D-01-0.54592258D-05 0.88134866D-09-0.52774454D-13    2
 0.38411506D+04-0.45920839D+02-0.12822236D+01 0.49041160D-01-0.13688997D-04    3
-0.29133858D-07 0.19006964D-10 0.80087098D+04 0.30798358D+02 0.96365992D+04    4
C5H4O                   C   5H   4O   1    0G   300.000  3000.000              1
 0.47927242E+01 0.29221680E-01-0.15997486E-04 0.42069049E-08-0.42815179E-12    2
 0.22849286E+04-0.30131893E+01-0.23915355E+01 0.47363680E-01-0.30728171E-04    3
 0.78031552E-08-0.25145729E-12 0.43740152E+04 0.34594337E+02                   4
C5H5O                   C   5O   1H   5    0G   200.000  6000.000              1
 0.12606422D+02 0.16747260D-01-0.61098574D-05 0.99676557D-09-0.60113201D-13    2
 0.39313455D+04-0.42604277D+02 0.23042835D+00 0.32322691D-01 0.28900443D-04    3
-0.70679977D-07 0.33406891D-10 0.80753082D+04 0.25330974D+02                   4
C6H                     C   6H   1    0    0G   300.000  3000.000              1
 0.12370055E+02 0.52177699E-02-0.16885009E-05 0.25807149E-09-0.15472851E-13    2
 0.12158739E+06-0.34952797E+02-0.25630299E+00 0.63793827E-01-0.11440118E-03    3
 0.10136744E-06-0.34361855E-10 0.12408855E+06 0.24930750E+02                   4
C6H2                    C   6H   2    0    0G   300.000  3000.000              1
 0.13226281E+02 0.73904302E-02-0.22715381E-05 0.25875217E-09-0.55356741E-14    2
 0.80565258E+05-0.41201176E+02-0.15932624E+01 0.80530145E-01-0.14800649E-03    3
 0.13300031E-06-0.45332313E-10 0.83273227E+05 0.27980873E+02                   4
C6H3                    C   6H   3    0    0G   300.000  3000.000              1
 0.58188343E+01 0.27933408E-01-0.17825427E-04 0.53702536E-08-0.61707627E-12    2
 0.85188250E+05-0.92147827E+00 0.11790619E+01 0.55547360E-01-0.73076168E-04    3
 0.52076736E-07-0.15046964E-10 0.85647312E+05 0.19179199E+02                   4
P-C6H4                  C   6H   4    0    0G   300.000  3000.000              1
 0.12715182E+02 0.13839662E-01-0.43765440E-05 0.31541636E-09 0.46619026E-13    2
 0.57031148E+05-0.39464600E+02 0.29590225E+00 0.58053318E-01-0.67766756E-04    3
 0.43376762E-07-0.11418864E-10 0.60001371E+05 0.22318970E+02                   4
C-C6H4                  C   6H   4    0    0G   300.000  3000.000              1
 0.13849209E+02 0.78807920E-02 0.18243836E-05-0.21169166E-08 0.37459977E-12    2
 0.47446340E+05-0.50404953E+02-0.30991268E+01 0.54030564E-01-0.40839004E-04    3
 0.10738837E-07 0.98078490E-12 0.52205711E+05 0.37415207E+02                   4
N-C6H5                  C   6H   5    0    0G   300.000  3000.000              1
 0.16070068E+02 0.81899539E-02 0.17325165E-05-0.20624185E-08 0.36292345E-12    2
 0.64616867E+05-0.56163742E+02-0.61135769E+00 0.65082610E-01-0.78262397E-04    3
 0.53030828E-07-0.14946683E-10 0.68805375E+05 0.27635468E+02                   4
I-C6H5                  C   6H   5    0    0G   300.000  3000.000              1
 0.22501663E+02-0.81009977E-02 0.15955695E-04-0.72310371E-08 0.10310424E-11    2
 0.58473410E+05-0.91224777E+02-0.78585434E+00 0.60221825E-01-0.62890264E-04    3
 0.36310730E-07-0.87000259E-11 0.64942270E+05 0.28658905E+02                   4
C6H5O                   C   6H   5O   1    0G   300.000  5000.000              1
 0.13833984E 02 0.17618403E-01-0.60696257E-05 0.91988173E-09-0.50449181E-13    2